
---------- Begin Simulation Statistics ----------
simSeconds                                   6.340192                       # Number of seconds simulated (Second)
simTicks                                 6340191708500                       # Number of ticks simulated (Tick)
finalTick                                6340191708500                       # Number of ticks from beginning of simulation (restored from checkpoints and never reset) (Tick)
simFreq                                  1000000000000                       # The number of ticks per simulated second ((Tick/Second))
hostSeconds                                     77.63                       # Real time elapsed on the host (Second)
hostTickRate                              81670350182                       # The number of ticks simulated per host second (ticks/s) ((Tick/Second))
hostMemory                                     445416                       # Number of bytes of host memory used (Byte)
simInsts                                     23667696                       # Number of instructions simulated (Count)
simOps                                       45217064                       # Number of ops (including micro ops) simulated (Count)
hostInstRate                                   304872                       # Simulator instruction rate (inst/s) ((Count/Second))
hostOpRate                                     582457                       # Simulator op (including micro ops) rate (op/s) ((Count/Second))
system.clk_domain.clock                           500                       # Clock period in ticks (Tick)
system.clk_domain.voltage_domain.voltage            1                       # Voltage in Volts (Volt)
system.cpu.numCycles                      12680383417                       # Number of cpu cycles simulated (Cycle)
system.cpu.cpi                             535.765962                       # CPI: cycles per instruction (core level) ((Cycle/Count))
system.cpu.ipc                               0.001866                       # IPC: instructions per cycle (core level) ((Count/Cycle))
system.cpu.numWorkItemsStarted                      0                       # Number of work items this cpu started (Count)
system.cpu.numWorkItemsCompleted                    0                       # Number of work items this cpu completed (Count)
system.cpu.commitStats0.numInsts             23667766                       # Number of instructions committed (thread level) (Count)
system.cpu.commitStats0.numOps               45217168                       # Number of ops (including micro ops) committed (thread level) (Count)
system.cpu.commitStats0.numInstsNotNOP              0                       # Number of instructions committed excluding NOPs or prefetches (Count)
system.cpu.commitStats0.numOpsNotNOP                0                       # Number of Ops (including micro ops) Simulated (Count)
system.cpu.commitStats0.cpi                535.765962                       # CPI: cycles per instruction (thread level) ((Cycle/Count))
system.cpu.commitStats0.ipc                  0.001866                       # IPC: instructions per cycle (thread level) ((Count/Cycle))
system.cpu.commitStats0.numMemRefs                  0                       # Number of memory references committed (Count)
system.cpu.commitStats0.numFpInsts             400088                       # Number of float instructions (Count)
system.cpu.commitStats0.numIntInsts          44489055                       # Number of integer instructions (Count)
system.cpu.commitStats0.numLoadInsts          7548375                       # Number of load instructions (Count)
system.cpu.commitStats0.numStoreInsts         6542857                       # Number of store instructions (Count)
system.cpu.commitStats0.numVecInsts                 0                       # Number of vector instructions (Count)
system.cpu.commitStats0.committedInstType::No_OpClass       137180      0.30%      0.30% # Class of committed instruction. (Count)
system.cpu.commitStats0.committedInstType::IntAlu     30122874     66.62%     66.92% # Class of committed instruction. (Count)
system.cpu.commitStats0.committedInstType::IntMult          166      0.00%     66.92% # Class of committed instruction. (Count)
system.cpu.commitStats0.committedInstType::IntDiv       676838      1.50%     68.42% # Class of committed instruction. (Count)
system.cpu.commitStats0.committedInstType::FloatAdd        79103      0.17%     68.59% # Class of committed instruction. (Count)
system.cpu.commitStats0.committedInstType::FloatCmp            0      0.00%     68.59% # Class of committed instruction. (Count)
system.cpu.commitStats0.committedInstType::FloatCvt            0      0.00%     68.59% # Class of committed instruction. (Count)
system.cpu.commitStats0.committedInstType::FloatMult            0      0.00%     68.59% # Class of committed instruction. (Count)
system.cpu.commitStats0.committedInstType::FloatMultAcc            0      0.00%     68.59% # Class of committed instruction. (Count)
system.cpu.commitStats0.committedInstType::FloatDiv            0      0.00%     68.59% # Class of committed instruction. (Count)
system.cpu.commitStats0.committedInstType::FloatMisc            0      0.00%     68.59% # Class of committed instruction. (Count)
system.cpu.commitStats0.committedInstType::FloatSqrt            0      0.00%     68.59% # Class of committed instruction. (Count)
system.cpu.commitStats0.committedInstType::SimdAdd          264      0.00%     68.59% # Class of committed instruction. (Count)
system.cpu.commitStats0.committedInstType::SimdAddAcc            0      0.00%     68.59% # Class of committed instruction. (Count)
system.cpu.commitStats0.committedInstType::SimdAlu        18132      0.04%     68.63% # Class of committed instruction. (Count)
system.cpu.commitStats0.committedInstType::SimdCmp            0      0.00%     68.63% # Class of committed instruction. (Count)
system.cpu.commitStats0.committedInstType::SimdCvt         2552      0.01%     68.64% # Class of committed instruction. (Count)
system.cpu.commitStats0.committedInstType::SimdMisc        88586      0.20%     68.84% # Class of committed instruction. (Count)
system.cpu.commitStats0.committedInstType::SimdMult            0      0.00%     68.84% # Class of committed instruction. (Count)
system.cpu.commitStats0.committedInstType::SimdMultAcc            0      0.00%     68.84% # Class of committed instruction. (Count)
system.cpu.commitStats0.committedInstType::SimdMatMultAcc            0      0.00%     68.84% # Class of committed instruction. (Count)
system.cpu.commitStats0.committedInstType::SimdShift            0      0.00%     68.84% # Class of committed instruction. (Count)
system.cpu.commitStats0.committedInstType::SimdShiftAcc            0      0.00%     68.84% # Class of committed instruction. (Count)
system.cpu.commitStats0.committedInstType::SimdDiv            0      0.00%     68.84% # Class of committed instruction. (Count)
system.cpu.commitStats0.committedInstType::SimdSqrt            0      0.00%     68.84% # Class of committed instruction. (Count)
system.cpu.commitStats0.committedInstType::SimdFloatAdd           30      0.00%     68.84% # Class of committed instruction. (Count)
system.cpu.commitStats0.committedInstType::SimdFloatAlu            0      0.00%     68.84% # Class of committed instruction. (Count)
system.cpu.commitStats0.committedInstType::SimdFloatCmp            0      0.00%     68.84% # Class of committed instruction. (Count)
system.cpu.commitStats0.committedInstType::SimdFloatCvt          188      0.00%     68.84% # Class of committed instruction. (Count)
system.cpu.commitStats0.committedInstType::SimdFloatDiv           13      0.00%     68.84% # Class of committed instruction. (Count)
system.cpu.commitStats0.committedInstType::SimdFloatMisc            0      0.00%     68.84% # Class of committed instruction. (Count)
system.cpu.commitStats0.committedInstType::SimdFloatMult           10      0.00%     68.84% # Class of committed instruction. (Count)
system.cpu.commitStats0.committedInstType::SimdFloatMultAcc            0      0.00%     68.84% # Class of committed instruction. (Count)
system.cpu.commitStats0.committedInstType::SimdFloatMatMultAcc            0      0.00%     68.84% # Class of committed instruction. (Count)
system.cpu.commitStats0.committedInstType::SimdFloatSqrt            0      0.00%     68.84% # Class of committed instruction. (Count)
system.cpu.commitStats0.committedInstType::SimdReduceAdd            0      0.00%     68.84% # Class of committed instruction. (Count)
system.cpu.commitStats0.committedInstType::SimdReduceAlu            0      0.00%     68.84% # Class of committed instruction. (Count)
system.cpu.commitStats0.committedInstType::SimdReduceCmp            0      0.00%     68.84% # Class of committed instruction. (Count)
system.cpu.commitStats0.committedInstType::SimdFloatReduceAdd            0      0.00%     68.84% # Class of committed instruction. (Count)
system.cpu.commitStats0.committedInstType::SimdFloatReduceCmp            0      0.00%     68.84% # Class of committed instruction. (Count)
system.cpu.commitStats0.committedInstType::SimdAes            0      0.00%     68.84% # Class of committed instruction. (Count)
system.cpu.commitStats0.committedInstType::SimdAesMix            0      0.00%     68.84% # Class of committed instruction. (Count)
system.cpu.commitStats0.committedInstType::SimdSha1Hash            0      0.00%     68.84% # Class of committed instruction. (Count)
system.cpu.commitStats0.committedInstType::SimdSha1Hash2            0      0.00%     68.84% # Class of committed instruction. (Count)
system.cpu.commitStats0.committedInstType::SimdSha256Hash            0      0.00%     68.84% # Class of committed instruction. (Count)
system.cpu.commitStats0.committedInstType::SimdSha256Hash2            0      0.00%     68.84% # Class of committed instruction. (Count)
system.cpu.commitStats0.committedInstType::SimdShaSigma2            0      0.00%     68.84% # Class of committed instruction. (Count)
system.cpu.commitStats0.committedInstType::SimdShaSigma3            0      0.00%     68.84% # Class of committed instruction. (Count)
system.cpu.commitStats0.committedInstType::SimdPredAlu            0      0.00%     68.84% # Class of committed instruction. (Count)
system.cpu.commitStats0.committedInstType::Matrix            0      0.00%     68.84% # Class of committed instruction. (Count)
system.cpu.commitStats0.committedInstType::MatrixMov            0      0.00%     68.84% # Class of committed instruction. (Count)
system.cpu.commitStats0.committedInstType::MatrixOP            0      0.00%     68.84% # Class of committed instruction. (Count)
system.cpu.commitStats0.committedInstType::MemRead      7526525     16.65%     85.48% # Class of committed instruction. (Count)
system.cpu.commitStats0.committedInstType::MemWrite      6414951     14.19%     99.67% # Class of committed instruction. (Count)
system.cpu.commitStats0.committedInstType::FloatMemRead        21850      0.05%     99.72% # Class of committed instruction. (Count)
system.cpu.commitStats0.committedInstType::FloatMemWrite       127906      0.28%    100.00% # Class of committed instruction. (Count)
system.cpu.commitStats0.committedInstType::IprAccess            0      0.00%    100.00% # Class of committed instruction. (Count)
system.cpu.commitStats0.committedInstType::InstPrefetch            0      0.00%    100.00% # Class of committed instruction. (Count)
system.cpu.commitStats0.committedInstType::VectorUnitStrideLoad            0      0.00%    100.00% # Class of committed instruction. (Count)
system.cpu.commitStats0.committedInstType::VectorUnitStrideStore            0      0.00%    100.00% # Class of committed instruction. (Count)
system.cpu.commitStats0.committedInstType::VectorUnitStrideMaskLoad            0      0.00%    100.00% # Class of committed instruction. (Count)
system.cpu.commitStats0.committedInstType::VectorUnitStrideMaskStore            0      0.00%    100.00% # Class of committed instruction. (Count)
system.cpu.commitStats0.committedInstType::VectorStridedLoad            0      0.00%    100.00% # Class of committed instruction. (Count)
system.cpu.commitStats0.committedInstType::VectorStridedStore            0      0.00%    100.00% # Class of committed instruction. (Count)
system.cpu.commitStats0.committedInstType::VectorIndexedLoad            0      0.00%    100.00% # Class of committed instruction. (Count)
system.cpu.commitStats0.committedInstType::VectorIndexedStore            0      0.00%    100.00% # Class of committed instruction. (Count)
system.cpu.commitStats0.committedInstType::VectorUnitStrideFaultOnlyFirstLoad            0      0.00%    100.00% # Class of committed instruction. (Count)
system.cpu.commitStats0.committedInstType::VectorWholeRegisterLoad            0      0.00%    100.00% # Class of committed instruction. (Count)
system.cpu.commitStats0.committedInstType::VectorWholeRegisterStore            0      0.00%    100.00% # Class of committed instruction. (Count)
system.cpu.commitStats0.committedInstType::VectorIntegerArith            0      0.00%    100.00% # Class of committed instruction. (Count)
system.cpu.commitStats0.committedInstType::VectorFloatArith            0      0.00%    100.00% # Class of committed instruction. (Count)
system.cpu.commitStats0.committedInstType::VectorFloatConvert            0      0.00%    100.00% # Class of committed instruction. (Count)
system.cpu.commitStats0.committedInstType::VectorIntegerReduce            0      0.00%    100.00% # Class of committed instruction. (Count)
system.cpu.commitStats0.committedInstType::VectorFloatReduce            0      0.00%    100.00% # Class of committed instruction. (Count)
system.cpu.commitStats0.committedInstType::VectorMisc            0      0.00%    100.00% # Class of committed instruction. (Count)
system.cpu.commitStats0.committedInstType::VectorIntegerExtension            0      0.00%    100.00% # Class of committed instruction. (Count)
system.cpu.commitStats0.committedInstType::VectorConfig            0      0.00%    100.00% # Class of committed instruction. (Count)
system.cpu.commitStats0.committedInstType::total     45217168                       # Class of committed instruction. (Count)
system.cpu.commitStats0.committedControl::IsControl      4428211                       # Class of control type instructions committed (Count)
system.cpu.commitStats0.committedControl::IsDirectControl      2914083                       # Class of control type instructions committed (Count)
system.cpu.commitStats0.committedControl::IsIndirectControl      1514128                       # Class of control type instructions committed (Count)
system.cpu.commitStats0.committedControl::IsCondControl      1240600                       # Class of control type instructions committed (Count)
system.cpu.commitStats0.committedControl::IsUncondControl      3187611                       # Class of control type instructions committed (Count)
system.cpu.commitStats0.committedControl::IsCall      1492800                       # Class of control type instructions committed (Count)
system.cpu.commitStats0.committedControl::IsReturn      1492795                       # Class of control type instructions committed (Count)
system.cpu.exec_context.thread_0.numMatAluAccesses            0                       # Number of matrix alu accesses (Count)
system.cpu.exec_context.thread_0.numCallsReturns      2985595                       # Number of times a function call or return occured (Count)
system.cpu.exec_context.thread_0.numMatInsts            0                       # Number of matrix instructions (Count)
system.cpu.exec_context.thread_0.numIdleCycles     0.002000                       # Number of idle cycles (Cycle)
system.cpu.exec_context.thread_0.numBusyCycles 12680383416.997999                       # Number of busy cycles (Cycle)
system.cpu.exec_context.thread_0.notIdleFraction     1.000000                       # Percentage of non-idle cycles (Ratio)
system.cpu.exec_context.thread_0.idleFraction     0.000000                       # Percentage of idle cycles (Ratio)
system.cpu.executeStats0.numInsts                   0                       # Number of executed instructions (Count)
system.cpu.executeStats0.numNop                     0                       # Number of nop insts executed (Count)
system.cpu.executeStats0.numBranches                0                       # Number of branches executed (Count)
system.cpu.executeStats0.numLoadInsts               0                       # Number of load instructions executed (Count)
system.cpu.executeStats0.numStoreInsts       14091232                       # Number of stores executed (Count)
system.cpu.executeStats0.instRate                   0                       # Inst execution rate ((Count/Cycle))
system.cpu.executeStats0.numFpAluAccesses       400088                       # Number of float alu accesses (Count)
system.cpu.executeStats0.numFpRegReads         385555                       # Number of times the floating registers were read (Count)
system.cpu.executeStats0.numFpRegWrites        263237                       # Number of times the floating registers were written (Count)
system.cpu.executeStats0.numIntAluAccesses     44489055                       # Number of integer alu accesses (Count)
system.cpu.executeStats0.numIntRegReads      66112230                       # Number of times the integer registers were read (Count)
system.cpu.executeStats0.numIntRegWrites     33646551                       # Number of times the integer registers were written (Count)
system.cpu.executeStats0.numMemRefs          14091232                       # Number of memory refs (Count)
system.cpu.executeStats0.numMiscRegReads     21409521                       # Number of times the Misc registers were read (Count)
system.cpu.executeStats0.numVecAluAccesses            0                       # Number of vector alu accesses (Count)
system.cpu.executeStats0.numDiscardedOps            0                       # Number of ops (including micro ops) which were discarded before commit (Count)
system.cpu.fetchStats0.numInsts              23667766                       # Number of instructions fetched (thread level) (Count)
system.cpu.fetchStats0.numOps                45217168                       # Number of ops (including micro ops) fetched (thread level) (Count)
system.cpu.fetchStats0.fetchRate             0.001866                       # Number of inst fetches per cycle ((Count/Cycle))
system.cpu.fetchStats0.numBranches            4428211                       # Number of branches fetched (Count)
system.cpu.fetchStats0.branchRate            0.000349                       # Number of branch fetches per cycle (Ratio)
system.cpu.fetchStats0.numFetchSuspends             0                       # Number of times Execute suspended instruction fetching (Count)
system.cpu.interrupts.clk_domain.clock           8000                       # Clock period in ticks (Tick)
system.cpu.mmu.dtb.rdAccesses                 7548396                       # TLB accesses on read requests (Count)
system.cpu.mmu.dtb.wrAccesses                 6542867                       # TLB accesses on write requests (Count)
system.cpu.mmu.dtb.rdMisses                      4952                       # TLB misses on read requests (Count)
system.cpu.mmu.dtb.wrMisses                       183                       # TLB misses on write requests (Count)
system.cpu.mmu.dtb.walker.power_state.pwrStateResidencyTicks::UNDEFINED 6340191708500                       # Cumulative time (in ticks) in various power states (Tick)
system.cpu.mmu.itb.rdAccesses                       0                       # TLB accesses on read requests (Count)
system.cpu.mmu.itb.wrAccesses                29806538                       # TLB accesses on write requests (Count)
system.cpu.mmu.itb.rdMisses                         0                       # TLB misses on read requests (Count)
system.cpu.mmu.itb.wrMisses                       126                       # TLB misses on write requests (Count)
system.cpu.mmu.itb.walker.power_state.pwrStateResidencyTicks::UNDEFINED 6340191708500                       # Cumulative time (in ticks) in various power states (Tick)
system.cpu.power_state.pwrStateResidencyTicks::ON 6340191708500                       # Cumulative time (in ticks) in various power states (Tick)
system.cpu.thread_0.numInsts                        0                       # Number of Instructions committed (Count)
system.cpu.thread_0.numOps                          0                       # Number of Ops committed (Count)
system.cpu.thread_0.numMemRefs                      0                       # Number of Memory References (Count)
system.cpu.workload.numSyscalls                    29                       # Number of system calls (Count)
system.cxlswitch.power_state.pwrStateResidencyTicks::UNDEFINED 6340191708500                       # Cumulative time (in ticks) in various power states (Tick)
system.cxlswitch2.power_state.pwrStateResidencyTicks::UNDEFINED 6340191708500                       # Cumulative time (in ticks) in various power states (Tick)
system.journal.power_state.pwrStateResidencyTicks::UNDEFINED 6340191708500                       # Cumulative time (in ticks) in various power states (Tick)
system.mem_ctrl.avgPriority_cpu.inst::samples  29806538.00                       # Average QoS priority value for accepted requests (Count)
system.mem_ctrl.avgPriority_cpu.data::samples   6597601.00                       # Average QoS priority value for accepted requests (Count)
system.mem_ctrl.priorityMinLatency       0.000000018750                       # per QoS priority minimum request to response latency (Second)
system.mem_ctrl.priorityMaxLatency       4.257484263500                       # per QoS priority maximum request to response latency (Second)
system.mem_ctrl.numReadWriteTurnArounds          5473                       # Number of turnarounds from READ to WRITE (Count)
system.mem_ctrl.numWriteReadTurnArounds          5473                       # Number of turnarounds from WRITE to READ (Count)
system.mem_ctrl.numStayReadState             80782624                       # Number of times bus staying in READ state (Count)
system.mem_ctrl.numStayWriteState               92992                       # Number of times bus staying in WRITE state (Count)
system.mem_ctrl.readReqs                     37354933                       # Number of read requests accepted (Count)
system.mem_ctrl.writeReqs                     6542793                       # Number of write requests accepted (Count)
system.mem_ctrl.readBursts                   37354933                       # Number of controller read bursts, including those serviced by the write queue (Count)
system.mem_ctrl.writeBursts                   6542793                       # Number of controller write bursts, including those merged in the write queue (Count)
system.mem_ctrl.servicedByWrQ                 1049052                       # Number of controller read bursts serviced by the write queue (Count)
system.mem_ctrl.mergedWrBursts                6444535                       # Number of controller write bursts merged with an existing one (Count)
system.mem_ctrl.neitherReadNorWriteReqs             0                       # Number of requests that are neither read nor write (Count)
system.mem_ctrl.avgRdQLen                        1.00                       # Average read queue length when enqueuing ((Count/Tick))
system.mem_ctrl.avgWrQLen                       26.59                       # Average write queue length when enqueuing ((Count/Tick))
system.mem_ctrl.numRdRetry                          0                       # Number of times read queue was full causing retry (Count)
system.mem_ctrl.numWrRetry                          0                       # Number of times write queue was full causing retry (Count)
system.mem_ctrl.readPktSize::0                  39184                       # Read request sizes (log2) (Count)
system.mem_ctrl.readPktSize::1                  12703                       # Read request sizes (log2) (Count)
system.mem_ctrl.readPktSize::2                 590737                       # Read request sizes (log2) (Count)
system.mem_ctrl.readPktSize::3               36712309                       # Read request sizes (log2) (Count)
system.mem_ctrl.readPktSize::4                      0                       # Read request sizes (log2) (Count)
system.mem_ctrl.readPktSize::5                      0                       # Read request sizes (log2) (Count)
system.mem_ctrl.readPktSize::6                      0                       # Read request sizes (log2) (Count)
system.mem_ctrl.writePktSize::0                 12430                       # Write request sizes (log2) (Count)
system.mem_ctrl.writePktSize::1                    54                       # Write request sizes (log2) (Count)
system.mem_ctrl.writePktSize::2                374188                       # Write request sizes (log2) (Count)
system.mem_ctrl.writePktSize::3               6156121                       # Write request sizes (log2) (Count)
system.mem_ctrl.writePktSize::4                     0                       # Write request sizes (log2) (Count)
system.mem_ctrl.writePktSize::5                     0                       # Write request sizes (log2) (Count)
system.mem_ctrl.writePktSize::6                     0                       # Write request sizes (log2) (Count)
system.mem_ctrl.rdQLenPdf::0                 36305861                       # What read queue length does an incoming req see (Count)
system.mem_ctrl.rdQLenPdf::1                       20                       # What read queue length does an incoming req see (Count)
system.mem_ctrl.rdQLenPdf::2                        0                       # What read queue length does an incoming req see (Count)
system.mem_ctrl.rdQLenPdf::3                        0                       # What read queue length does an incoming req see (Count)
system.mem_ctrl.rdQLenPdf::4                        0                       # What read queue length does an incoming req see (Count)
system.mem_ctrl.rdQLenPdf::5                        0                       # What read queue length does an incoming req see (Count)
system.mem_ctrl.rdQLenPdf::6                        0                       # What read queue length does an incoming req see (Count)
system.mem_ctrl.rdQLenPdf::7                        0                       # What read queue length does an incoming req see (Count)
system.mem_ctrl.rdQLenPdf::8                        0                       # What read queue length does an incoming req see (Count)
system.mem_ctrl.rdQLenPdf::9                        0                       # What read queue length does an incoming req see (Count)
system.mem_ctrl.rdQLenPdf::10                       0                       # What read queue length does an incoming req see (Count)
system.mem_ctrl.rdQLenPdf::11                       0                       # What read queue length does an incoming req see (Count)
system.mem_ctrl.rdQLenPdf::12                       0                       # What read queue length does an incoming req see (Count)
system.mem_ctrl.rdQLenPdf::13                       0                       # What read queue length does an incoming req see (Count)
system.mem_ctrl.rdQLenPdf::14                       0                       # What read queue length does an incoming req see (Count)
system.mem_ctrl.rdQLenPdf::15                       0                       # What read queue length does an incoming req see (Count)
system.mem_ctrl.rdQLenPdf::16                       0                       # What read queue length does an incoming req see (Count)
system.mem_ctrl.rdQLenPdf::17                       0                       # What read queue length does an incoming req see (Count)
system.mem_ctrl.rdQLenPdf::18                       0                       # What read queue length does an incoming req see (Count)
system.mem_ctrl.rdQLenPdf::19                       0                       # What read queue length does an incoming req see (Count)
system.mem_ctrl.rdQLenPdf::20                       0                       # What read queue length does an incoming req see (Count)
system.mem_ctrl.rdQLenPdf::21                       0                       # What read queue length does an incoming req see (Count)
system.mem_ctrl.rdQLenPdf::22                       0                       # What read queue length does an incoming req see (Count)
system.mem_ctrl.rdQLenPdf::23                       0                       # What read queue length does an incoming req see (Count)
system.mem_ctrl.rdQLenPdf::24                       0                       # What read queue length does an incoming req see (Count)
system.mem_ctrl.rdQLenPdf::25                       0                       # What read queue length does an incoming req see (Count)
system.mem_ctrl.rdQLenPdf::26                       0                       # What read queue length does an incoming req see (Count)
system.mem_ctrl.rdQLenPdf::27                       0                       # What read queue length does an incoming req see (Count)
system.mem_ctrl.rdQLenPdf::28                       0                       # What read queue length does an incoming req see (Count)
system.mem_ctrl.rdQLenPdf::29                       0                       # What read queue length does an incoming req see (Count)
system.mem_ctrl.rdQLenPdf::30                       0                       # What read queue length does an incoming req see (Count)
system.mem_ctrl.rdQLenPdf::31                       0                       # What read queue length does an incoming req see (Count)
system.mem_ctrl.wrQLenPdf::0                        1                       # What write queue length does an incoming req see (Count)
system.mem_ctrl.wrQLenPdf::1                        1                       # What write queue length does an incoming req see (Count)
system.mem_ctrl.wrQLenPdf::2                        1                       # What write queue length does an incoming req see (Count)
system.mem_ctrl.wrQLenPdf::3                        1                       # What write queue length does an incoming req see (Count)
system.mem_ctrl.wrQLenPdf::4                        1                       # What write queue length does an incoming req see (Count)
system.mem_ctrl.wrQLenPdf::5                        1                       # What write queue length does an incoming req see (Count)
system.mem_ctrl.wrQLenPdf::6                        1                       # What write queue length does an incoming req see (Count)
system.mem_ctrl.wrQLenPdf::7                        1                       # What write queue length does an incoming req see (Count)
system.mem_ctrl.wrQLenPdf::8                        1                       # What write queue length does an incoming req see (Count)
system.mem_ctrl.wrQLenPdf::9                        1                       # What write queue length does an incoming req see (Count)
system.mem_ctrl.wrQLenPdf::10                       1                       # What write queue length does an incoming req see (Count)
system.mem_ctrl.wrQLenPdf::11                       1                       # What write queue length does an incoming req see (Count)
system.mem_ctrl.wrQLenPdf::12                       1                       # What write queue length does an incoming req see (Count)
system.mem_ctrl.wrQLenPdf::13                       1                       # What write queue length does an incoming req see (Count)
system.mem_ctrl.wrQLenPdf::14                       1                       # What write queue length does an incoming req see (Count)
system.mem_ctrl.wrQLenPdf::15                    5330                       # What write queue length does an incoming req see (Count)
system.mem_ctrl.wrQLenPdf::16                    5335                       # What write queue length does an incoming req see (Count)
system.mem_ctrl.wrQLenPdf::17                    5474                       # What write queue length does an incoming req see (Count)
system.mem_ctrl.wrQLenPdf::18                    5474                       # What write queue length does an incoming req see (Count)
system.mem_ctrl.wrQLenPdf::19                    5474                       # What write queue length does an incoming req see (Count)
system.mem_ctrl.wrQLenPdf::20                    5474                       # What write queue length does an incoming req see (Count)
system.mem_ctrl.wrQLenPdf::21                    5474                       # What write queue length does an incoming req see (Count)
system.mem_ctrl.wrQLenPdf::22                    5474                       # What write queue length does an incoming req see (Count)
system.mem_ctrl.wrQLenPdf::23                    5474                       # What write queue length does an incoming req see (Count)
system.mem_ctrl.wrQLenPdf::24                    5474                       # What write queue length does an incoming req see (Count)
system.mem_ctrl.wrQLenPdf::25                    5474                       # What write queue length does an incoming req see (Count)
system.mem_ctrl.wrQLenPdf::26                    5474                       # What write queue length does an incoming req see (Count)
system.mem_ctrl.wrQLenPdf::27                    5473                       # What write queue length does an incoming req see (Count)
system.mem_ctrl.wrQLenPdf::28                    5473                       # What write queue length does an incoming req see (Count)
system.mem_ctrl.wrQLenPdf::29                    5473                       # What write queue length does an incoming req see (Count)
system.mem_ctrl.wrQLenPdf::30                    5473                       # What write queue length does an incoming req see (Count)
system.mem_ctrl.wrQLenPdf::31                    5473                       # What write queue length does an incoming req see (Count)
system.mem_ctrl.wrQLenPdf::32                    5473                       # What write queue length does an incoming req see (Count)
system.mem_ctrl.wrQLenPdf::33                       0                       # What write queue length does an incoming req see (Count)
system.mem_ctrl.wrQLenPdf::34                       0                       # What write queue length does an incoming req see (Count)
system.mem_ctrl.wrQLenPdf::35                       0                       # What write queue length does an incoming req see (Count)
system.mem_ctrl.wrQLenPdf::36                       0                       # What write queue length does an incoming req see (Count)
system.mem_ctrl.wrQLenPdf::37                       0                       # What write queue length does an incoming req see (Count)
system.mem_ctrl.wrQLenPdf::38                       0                       # What write queue length does an incoming req see (Count)
system.mem_ctrl.wrQLenPdf::39                       0                       # What write queue length does an incoming req see (Count)
system.mem_ctrl.wrQLenPdf::40                       0                       # What write queue length does an incoming req see (Count)
system.mem_ctrl.wrQLenPdf::41                       0                       # What write queue length does an incoming req see (Count)
system.mem_ctrl.wrQLenPdf::42                       0                       # What write queue length does an incoming req see (Count)
system.mem_ctrl.wrQLenPdf::43                       0                       # What write queue length does an incoming req see (Count)
system.mem_ctrl.wrQLenPdf::44                       0                       # What write queue length does an incoming req see (Count)
system.mem_ctrl.wrQLenPdf::45                       0                       # What write queue length does an incoming req see (Count)
system.mem_ctrl.wrQLenPdf::46                       0                       # What write queue length does an incoming req see (Count)
system.mem_ctrl.wrQLenPdf::47                       0                       # What write queue length does an incoming req see (Count)
system.mem_ctrl.wrQLenPdf::48                       0                       # What write queue length does an incoming req see (Count)
system.mem_ctrl.wrQLenPdf::49                       0                       # What write queue length does an incoming req see (Count)
system.mem_ctrl.wrQLenPdf::50                       0                       # What write queue length does an incoming req see (Count)
system.mem_ctrl.wrQLenPdf::51                       0                       # What write queue length does an incoming req see (Count)
system.mem_ctrl.wrQLenPdf::52                       0                       # What write queue length does an incoming req see (Count)
system.mem_ctrl.wrQLenPdf::53                       0                       # What write queue length does an incoming req see (Count)
system.mem_ctrl.wrQLenPdf::54                       0                       # What write queue length does an incoming req see (Count)
system.mem_ctrl.wrQLenPdf::55                       0                       # What write queue length does an incoming req see (Count)
system.mem_ctrl.wrQLenPdf::56                       0                       # What write queue length does an incoming req see (Count)
system.mem_ctrl.wrQLenPdf::57                       0                       # What write queue length does an incoming req see (Count)
system.mem_ctrl.wrQLenPdf::58                       0                       # What write queue length does an incoming req see (Count)
system.mem_ctrl.wrQLenPdf::59                       0                       # What write queue length does an incoming req see (Count)
system.mem_ctrl.wrQLenPdf::60                       0                       # What write queue length does an incoming req see (Count)
system.mem_ctrl.wrQLenPdf::61                       0                       # What write queue length does an incoming req see (Count)
system.mem_ctrl.wrQLenPdf::62                       0                       # What write queue length does an incoming req see (Count)
system.mem_ctrl.wrQLenPdf::63                       0                       # What write queue length does an incoming req see (Count)
system.mem_ctrl.rdPerTurnAround::samples         5473                       # Reads before turning the bus around for writes (Count)
system.mem_ctrl.rdPerTurnAround::mean     6477.761922                       # Reads before turning the bus around for writes (Count)
system.mem_ctrl.rdPerTurnAround::gmean    2606.878384                       # Reads before turning the bus around for writes (Count)
system.mem_ctrl.rdPerTurnAround::stdev   117226.091714                       # Reads before turning the bus around for writes (Count)
system.mem_ctrl.rdPerTurnAround::0-262143         5470     99.95%     99.95% # Reads before turning the bus around for writes (Count)
system.mem_ctrl.rdPerTurnAround::786432-1.04858e+06            1      0.02%     99.96% # Reads before turning the bus around for writes (Count)
system.mem_ctrl.rdPerTurnAround::6.02931e+06-6.29146e+06            2      0.04%    100.00% # Reads before turning the bus around for writes (Count)
system.mem_ctrl.rdPerTurnAround::total           5473                       # Reads before turning the bus around for writes (Count)
system.mem_ctrl.wrPerTurnAround::samples         5473                       # Writes before turning the bus around for reads (Count)
system.mem_ctrl.wrPerTurnAround::mean       17.948292                       # Writes before turning the bus around for reads (Count)
system.mem_ctrl.wrPerTurnAround::gmean      17.945298                       # Writes before turning the bus around for reads (Count)
system.mem_ctrl.wrPerTurnAround::stdev       0.315987                       # Writes before turning the bus around for reads (Count)
system.mem_ctrl.wrPerTurnAround::16               139      2.54%      2.54% # Writes before turning the bus around for reads (Count)
system.mem_ctrl.wrPerTurnAround::17                 5      0.09%      2.63% # Writes before turning the bus around for reads (Count)
system.mem_ctrl.wrPerTurnAround::18              5329     97.37%    100.00% # Writes before turning the bus around for reads (Count)
system.mem_ctrl.wrPerTurnAround::total           5473                       # Writes before turning the bus around for reads (Count)
system.mem_ctrl.bytesReadWrQ                 67139328                       # Total number of bytes read from write queue (Byte)
system.mem_ctrl.bytesReadSys                296125982                       # Total read bytes from the system interface side (Byte)
system.mem_ctrl.bytesWrittenSys              50758250                       # Total written bytes from the system interface side (Byte)
system.mem_ctrl.avgRdBWSys               46706155.84115504                       # Average system read bandwidth in Byte/s ((Byte/Second))
system.mem_ctrl.avgWrBWSys               8005791.04444914                       # Average system write bandwidth in Byte/s ((Byte/Second))
system.mem_ctrl.totGap                   6340191564500                       # Total gap between requests (Tick)
system.mem_ctrl.avgGap                      144430.98                       # Average gap between requests ((Tick/Count))
system.mem_ctrl.requestorReadBytes::cpu.inst    238452304                       # Per-requestor bytes read from memory (Byte)
system.mem_ctrl.requestorReadBytes::cpu.data     49815793                       # Per-requestor bytes read from memory (Byte)
system.mem_ctrl.requestorWriteBytes::cpu.data       741510                       # Per-requestor bytes write to memory (Byte)
system.mem_ctrl.requestorReadRate::cpu.inst 37609636.263887427747                       # Per-requestor bytes read from memory rate ((Byte/Second))
system.mem_ctrl.requestorReadRate::cpu.data 7857143.015599084087                       # Per-requestor bytes read from memory rate ((Byte/Second))
system.mem_ctrl.requestorWriteRate::cpu.data 116953.876805632244                       # Per-requestor bytes write to memory rate ((Byte/Second))
system.mem_ctrl.requestorReadAccesses::cpu.inst     29806538                       # Per-requestor read serviced memory accesses (Count)
system.mem_ctrl.requestorReadAccesses::cpu.data      7548395                       # Per-requestor read serviced memory accesses (Count)
system.mem_ctrl.requestorWriteAccesses::cpu.data      6542793                       # Per-requestor write serviced memory accesses (Count)
system.mem_ctrl.requestorReadTotalLat::cpu.inst 732077286250                       # Per-requestor read total memory access latency (Tick)
system.mem_ctrl.requestorReadTotalLat::cpu.data 185212254000                       # Per-requestor read total memory access latency (Tick)
system.mem_ctrl.requestorWriteTotalLat::cpu.data 165956603969500                       # Per-requestor write total memory access latency (Tick)
system.mem_ctrl.requestorReadAvgLat::cpu.inst     24560.96                       # Per-requestor read average memory access latency ((Tick/Count))
system.mem_ctrl.requestorReadAvgLat::cpu.data     24536.64                       # Per-requestor read average memory access latency ((Tick/Count))
system.mem_ctrl.requestorWriteAvgLat::cpu.data  25364795.12                       # Per-requestor write average memory access latency ((Tick/Count))
system.mem_ctrl.dram.bytesRead::cpu.inst    238452304                       # Number of bytes read from this memory (Byte)
system.mem_ctrl.dram.bytesRead::cpu.data     57673678                       # Number of bytes read from this memory (Byte)
system.mem_ctrl.dram.bytesRead::total       296125982                       # Number of bytes read from this memory (Byte)
system.mem_ctrl.dram.bytesInstRead::cpu.inst    238452304                       # Number of instructions bytes read from this memory (Byte)
system.mem_ctrl.dram.bytesInstRead::total    238452304                       # Number of instructions bytes read from this memory (Byte)
system.mem_ctrl.dram.bytesWritten::cpu.data     50758250                       # Number of bytes written to this memory (Byte)
system.mem_ctrl.dram.bytesWritten::total     50758250                       # Number of bytes written to this memory (Byte)
system.mem_ctrl.dram.numReads::cpu.inst      29806538                       # Number of read requests responded to by this memory (Count)
system.mem_ctrl.dram.numReads::cpu.data       7548395                       # Number of read requests responded to by this memory (Count)
system.mem_ctrl.dram.numReads::total         37354933                       # Number of read requests responded to by this memory (Count)
system.mem_ctrl.dram.numWrites::cpu.data      6542793                       # Number of write requests responded to by this memory (Count)
system.mem_ctrl.dram.numWrites::total         6542793                       # Number of write requests responded to by this memory (Count)
system.mem_ctrl.dram.bwRead::cpu.inst        37609636                       # Total read bandwidth from this memory ((Byte/Second))
system.mem_ctrl.dram.bwRead::cpu.data         9096520                       # Total read bandwidth from this memory ((Byte/Second))
system.mem_ctrl.dram.bwRead::total           46706156                       # Total read bandwidth from this memory ((Byte/Second))
system.mem_ctrl.dram.bwInstRead::cpu.inst     37609636                       # Instruction read bandwidth from this memory ((Byte/Second))
system.mem_ctrl.dram.bwInstRead::total       37609636                       # Instruction read bandwidth from this memory ((Byte/Second))
system.mem_ctrl.dram.bwWrite::cpu.data        8005791                       # Write bandwidth from this memory ((Byte/Second))
system.mem_ctrl.dram.bwWrite::total           8005791                       # Write bandwidth from this memory ((Byte/Second))
system.mem_ctrl.dram.bwTotal::cpu.inst       37609636                       # Total bandwidth to/from this memory ((Byte/Second))
system.mem_ctrl.dram.bwTotal::cpu.data       17102311                       # Total bandwidth to/from this memory ((Byte/Second))
system.mem_ctrl.dram.bwTotal::total          54711947                       # Total bandwidth to/from this memory ((Byte/Second))
system.mem_ctrl.dram.readBursts              36305881                       # Number of DRAM read bursts (Count)
system.mem_ctrl.dram.writeBursts                98231                       # Number of DRAM write bursts (Count)
system.mem_ctrl.dram.perBankRdBursts::0       2245072                       # Per bank write bursts (Count)
system.mem_ctrl.dram.perBankRdBursts::1         15245                       # Per bank write bursts (Count)
system.mem_ctrl.dram.perBankRdBursts::2      21355076                       # Per bank write bursts (Count)
system.mem_ctrl.dram.perBankRdBursts::3       8494164                       # Per bank write bursts (Count)
system.mem_ctrl.dram.perBankRdBursts::4        160366                       # Per bank write bursts (Count)
system.mem_ctrl.dram.perBankRdBursts::5         17584                       # Per bank write bursts (Count)
system.mem_ctrl.dram.perBankRdBursts::6         55980                       # Per bank write bursts (Count)
system.mem_ctrl.dram.perBankRdBursts::7         94690                       # Per bank write bursts (Count)
system.mem_ctrl.dram.perBankRdBursts::8         27629                       # Per bank write bursts (Count)
system.mem_ctrl.dram.perBankRdBursts::9         27930                       # Per bank write bursts (Count)
system.mem_ctrl.dram.perBankRdBursts::10        56795                       # Per bank write bursts (Count)
system.mem_ctrl.dram.perBankRdBursts::11        48198                       # Per bank write bursts (Count)
system.mem_ctrl.dram.perBankRdBursts::12        23698                       # Per bank write bursts (Count)
system.mem_ctrl.dram.perBankRdBursts::13      1692546                       # Per bank write bursts (Count)
system.mem_ctrl.dram.perBankRdBursts::14      1072104                       # Per bank write bursts (Count)
system.mem_ctrl.dram.perBankRdBursts::15       918804                       # Per bank write bursts (Count)
system.mem_ctrl.dram.perBankWrBursts::0          4813                       # Per bank write bursts (Count)
system.mem_ctrl.dram.perBankWrBursts::1          2968                       # Per bank write bursts (Count)
system.mem_ctrl.dram.perBankWrBursts::2          3120                       # Per bank write bursts (Count)
system.mem_ctrl.dram.perBankWrBursts::3         36380                       # Per bank write bursts (Count)
system.mem_ctrl.dram.perBankWrBursts::4          3073                       # Per bank write bursts (Count)
system.mem_ctrl.dram.perBankWrBursts::5          3300                       # Per bank write bursts (Count)
system.mem_ctrl.dram.perBankWrBursts::6          5598                       # Per bank write bursts (Count)
system.mem_ctrl.dram.perBankWrBursts::7          5453                       # Per bank write bursts (Count)
system.mem_ctrl.dram.perBankWrBursts::8          5006                       # Per bank write bursts (Count)
system.mem_ctrl.dram.perBankWrBursts::9          3903                       # Per bank write bursts (Count)
system.mem_ctrl.dram.perBankWrBursts::10         3589                       # Per bank write bursts (Count)
system.mem_ctrl.dram.perBankWrBursts::11         3698                       # Per bank write bursts (Count)
system.mem_ctrl.dram.perBankWrBursts::12         3608                       # Per bank write bursts (Count)
system.mem_ctrl.dram.perBankWrBursts::13         7640                       # Per bank write bursts (Count)
system.mem_ctrl.dram.perBankWrBursts::14         3217                       # Per bank write bursts (Count)
system.mem_ctrl.dram.perBankWrBursts::15         2865                       # Per bank write bursts (Count)
system.mem_ctrl.dram.totQLat             236554271500                       # Total ticks spent queuing (Tick)
system.mem_ctrl.dram.totBusLat           181529405000                       # Total ticks spent in databus transfers (Tick)
system.mem_ctrl.dram.totMemAccLat        917289540250                       # Total ticks spent from burst creation until serviced by the DRAM (Tick)
system.mem_ctrl.dram.avgQLat                  6515.59                       # Average queueing delay per DRAM burst ((Tick/Count))
system.mem_ctrl.dram.avgBusLat                5000.00                       # Average bus latency per DRAM burst ((Tick/Count))
system.mem_ctrl.dram.avgMemAccLat            25265.59                       # Average memory access latency per DRAM burst ((Tick/Count))
system.mem_ctrl.dram.readRowHits             31414879                       # Number of row buffer hits during reads (Count)
system.mem_ctrl.dram.writeRowHits               70900                       # Number of row buffer hits during writes (Count)
system.mem_ctrl.dram.readRowHitRate             86.53                       # Row buffer hit rate for reads (Ratio)
system.mem_ctrl.dram.writeRowHitRate            72.18                       # Row buffer hit rate for writes (Ratio)
system.mem_ctrl.dram.bytesPerActivate::samples      4918329                       # Bytes accessed per row activation (Byte)
system.mem_ctrl.dram.bytesPerActivate::mean   473.709987                       # Bytes accessed per row activation (Byte)
system.mem_ctrl.dram.bytesPerActivate::gmean   283.493388                       # Bytes accessed per row activation (Byte)
system.mem_ctrl.dram.bytesPerActivate::stdev   393.115485                       # Bytes accessed per row activation (Byte)
system.mem_ctrl.dram.bytesPerActivate::0-127      1423766     28.95%     28.95% # Bytes accessed per row activation (Byte)
system.mem_ctrl.dram.bytesPerActivate::128-255       585838     11.91%     40.86% # Bytes accessed per row activation (Byte)
system.mem_ctrl.dram.bytesPerActivate::256-383       465067      9.46%     50.32% # Bytes accessed per row activation (Byte)
system.mem_ctrl.dram.bytesPerActivate::384-511       338076      6.87%     57.19% # Bytes accessed per row activation (Byte)
system.mem_ctrl.dram.bytesPerActivate::512-639       345076      7.02%     64.21% # Bytes accessed per row activation (Byte)
system.mem_ctrl.dram.bytesPerActivate::640-767       204710      4.16%     68.37% # Bytes accessed per row activation (Byte)
system.mem_ctrl.dram.bytesPerActivate::768-895       140853      2.86%     71.23% # Bytes accessed per row activation (Byte)
system.mem_ctrl.dram.bytesPerActivate::896-1023        94295      1.92%     73.15% # Bytes accessed per row activation (Byte)
system.mem_ctrl.dram.bytesPerActivate::1024-1151      1320648     26.85%    100.00% # Bytes accessed per row activation (Byte)
system.mem_ctrl.dram.bytesPerActivate::total      4918329                       # Bytes accessed per row activation (Byte)
system.mem_ctrl.dram.dramBytesRead         2323576384                       # Total bytes read (Byte)
system.mem_ctrl.dram.dramBytesWritten         6286784                       # Total bytes written (Byte)
system.mem_ctrl.dram.avgRdBW               366.483616                       # Average DRAM read bandwidth in MiBytes/s ((Byte/Second))
system.mem_ctrl.dram.avgWrBW                 0.991576                       # Average DRAM write bandwidth in MiBytes/s ((Byte/Second))
system.mem_ctrl.dram.peakBW                  12800.00                       # Theoretical peak bandwidth in MiByte/s ((Byte/Second))
system.mem_ctrl.dram.busUtil                     2.87                       # Data bus utilization in percentage (Ratio)
system.mem_ctrl.dram.busUtilRead                 2.86                       # Data bus utilization in percentage for reads (Ratio)
system.mem_ctrl.dram.busUtilWrite                0.01                       # Data bus utilization in percentage for writes (Ratio)
system.mem_ctrl.dram.pageHitRate                86.49                       # Row buffer hit rate, read and write combined (Ratio)
system.mem_ctrl.dram.power_state.pwrStateResidencyTicks::UNDEFINED 6340191708500                       # Cumulative time (in ticks) in various power states (Tick)
system.mem_ctrl.dram.rank0.actEnergy      31132670520                       # Energy for activate commands per rank (pJ) (Joule)
system.mem_ctrl.dram.rank0.preEnergy      16547395425                       # Energy for precharge commands per rank (pJ) (Joule)
system.mem_ctrl.dram.rank0.readEnergy    231608583780                       # Energy for read commands per rank (pJ) (Joule)
system.mem_ctrl.dram.rank0.writeEnergy      337760100                       # Energy for write commands per rank (pJ) (Joule)
system.mem_ctrl.dram.rank0.refreshEnergy 500489059200.000061                       # Energy for refresh commands per rank (pJ) (Joule)
system.mem_ctrl.dram.rank0.actBackEnergy 2772428473710                       # Energy for active background per rank (pJ) (Joule)
system.mem_ctrl.dram.rank0.preBackEnergy  99957006720                       # Energy for precharge background per rank (pJ) (Joule)
system.mem_ctrl.dram.rank0.actPowerDownEnergy            0                       # Energy for active power-down per rank (pJ) (Joule)
system.mem_ctrl.dram.rank0.prePowerDownEnergy            0                       # Energy for precharge power-down per rank (pJ) (Joule)
system.mem_ctrl.dram.rank0.selfRefreshEnergy            0                       # Energy for self refresh per rank (pJ) (Joule)
system.mem_ctrl.dram.rank0.totalEnergy   3652500949455                       # Total energy per rank (pJ) (Joule)
system.mem_ctrl.dram.rank0.averagePower    576.086831                       # Core power per rank (mW) (Watt)
system.mem_ctrl.dram.rank0.totalIdleTime            0                       # Total Idle time Per DRAM Rank (Tick)
system.mem_ctrl.dram.rank0.pwrStateTime::IDLE 228882662500                       # Time in different power states (Tick)
system.mem_ctrl.dram.rank0.pwrStateTime::REF 211712800000                       # Time in different power states (Tick)
system.mem_ctrl.dram.rank0.pwrStateTime::SREF            0                       # Time in different power states (Tick)
system.mem_ctrl.dram.rank0.pwrStateTime::PRE_PDN            0                       # Time in different power states (Tick)
system.mem_ctrl.dram.rank0.pwrStateTime::ACT 5899596246000                       # Time in different power states (Tick)
system.mem_ctrl.dram.rank0.pwrStateTime::ACT_PDN            0                       # Time in different power states (Tick)
system.mem_ctrl.dram.rank1.actEnergy       3984227100                       # Energy for activate commands per rank (pJ) (Joule)
system.mem_ctrl.dram.rank1.preEnergy       2117663130                       # Energy for precharge commands per rank (pJ) (Joule)
system.mem_ctrl.dram.rank1.readEnergy     27615406560                       # Energy for read commands per rank (pJ) (Joule)
system.mem_ctrl.dram.rank1.writeEnergy      175005720                       # Energy for write commands per rank (pJ) (Joule)
system.mem_ctrl.dram.rank1.refreshEnergy 500489059200.000061                       # Energy for refresh commands per rank (pJ) (Joule)
system.mem_ctrl.dram.rank1.actBackEnergy 645020535750                       # Energy for active background per rank (pJ) (Joule)
system.mem_ctrl.dram.rank1.preBackEnergy 1891458428160                       # Energy for precharge background per rank (pJ) (Joule)
system.mem_ctrl.dram.rank1.actPowerDownEnergy            0                       # Energy for active power-down per rank (pJ) (Joule)
system.mem_ctrl.dram.rank1.prePowerDownEnergy            0                       # Energy for precharge power-down per rank (pJ) (Joule)
system.mem_ctrl.dram.rank1.selfRefreshEnergy            0                       # Energy for self refresh per rank (pJ) (Joule)
system.mem_ctrl.dram.rank1.totalEnergy   3070860325620                       # Total energy per rank (pJ) (Joule)
system.mem_ctrl.dram.rank1.averagePower    484.348182                       # Core power per rank (mW) (Watt)
system.mem_ctrl.dram.rank1.totalIdleTime            0                       # Total Idle time Per DRAM Rank (Tick)
system.mem_ctrl.dram.rank1.pwrStateTime::IDLE 4909954843000                       # Time in different power states (Tick)
system.mem_ctrl.dram.rank1.pwrStateTime::REF 211712800000                       # Time in different power states (Tick)
system.mem_ctrl.dram.rank1.pwrStateTime::SREF            0                       # Time in different power states (Tick)
system.mem_ctrl.dram.rank1.pwrStateTime::PRE_PDN            0                       # Time in different power states (Tick)
system.mem_ctrl.dram.rank1.pwrStateTime::ACT 1218524065500                       # Time in different power states (Tick)
system.mem_ctrl.dram.rank1.pwrStateTime::ACT_PDN            0                       # Time in different power states (Tick)
system.mem_ctrl.power_state.pwrStateResidencyTicks::UNDEFINED 6340191708500                       # Cumulative time (in ticks) in various power states (Tick)
system.mem_ctrl2.priorityMinLatency      0.000000000000                       # per QoS priority minimum request to response latency (Second)
system.mem_ctrl2.priorityMaxLatency      0.000000000000                       # per QoS priority maximum request to response latency (Second)
system.mem_ctrl2.numReadWriteTurnArounds            0                       # Number of turnarounds from READ to WRITE (Count)
system.mem_ctrl2.numWriteReadTurnArounds            0                       # Number of turnarounds from WRITE to READ (Count)
system.mem_ctrl2.numStayReadState             1628560                       # Number of times bus staying in READ state (Count)
system.mem_ctrl2.numStayWriteState                  0                       # Number of times bus staying in WRITE state (Count)
system.mem_ctrl2.readReqs                           0                       # Number of read requests accepted (Count)
system.mem_ctrl2.writeReqs                          0                       # Number of write requests accepted (Count)
system.mem_ctrl2.readBursts                         0                       # Number of controller read bursts, including those serviced by the write queue (Count)
system.mem_ctrl2.writeBursts                        0                       # Number of controller write bursts, including those merged in the write queue (Count)
system.mem_ctrl2.servicedByWrQ                      0                       # Number of controller read bursts serviced by the write queue (Count)
system.mem_ctrl2.mergedWrBursts                     0                       # Number of controller write bursts merged with an existing one (Count)
system.mem_ctrl2.neitherReadNorWriteReqs            0                       # Number of requests that are neither read nor write (Count)
system.mem_ctrl2.avgRdQLen                       0.00                       # Average read queue length when enqueuing ((Count/Tick))
system.mem_ctrl2.avgWrQLen                       0.00                       # Average write queue length when enqueuing ((Count/Tick))
system.mem_ctrl2.numRdRetry                         0                       # Number of times read queue was full causing retry (Count)
system.mem_ctrl2.numWrRetry                         0                       # Number of times write queue was full causing retry (Count)
system.mem_ctrl2.readPktSize::0                     0                       # Read request sizes (log2) (Count)
system.mem_ctrl2.readPktSize::1                     0                       # Read request sizes (log2) (Count)
system.mem_ctrl2.readPktSize::2                     0                       # Read request sizes (log2) (Count)
system.mem_ctrl2.readPktSize::3                     0                       # Read request sizes (log2) (Count)
system.mem_ctrl2.readPktSize::4                     0                       # Read request sizes (log2) (Count)
system.mem_ctrl2.readPktSize::5                     0                       # Read request sizes (log2) (Count)
system.mem_ctrl2.readPktSize::6                     0                       # Read request sizes (log2) (Count)
system.mem_ctrl2.writePktSize::0                    0                       # Write request sizes (log2) (Count)
system.mem_ctrl2.writePktSize::1                    0                       # Write request sizes (log2) (Count)
system.mem_ctrl2.writePktSize::2                    0                       # Write request sizes (log2) (Count)
system.mem_ctrl2.writePktSize::3                    0                       # Write request sizes (log2) (Count)
system.mem_ctrl2.writePktSize::4                    0                       # Write request sizes (log2) (Count)
system.mem_ctrl2.writePktSize::5                    0                       # Write request sizes (log2) (Count)
system.mem_ctrl2.writePktSize::6                    0                       # Write request sizes (log2) (Count)
system.mem_ctrl2.rdQLenPdf::0                       0                       # What read queue length does an incoming req see (Count)
system.mem_ctrl2.rdQLenPdf::1                       0                       # What read queue length does an incoming req see (Count)
system.mem_ctrl2.rdQLenPdf::2                       0                       # What read queue length does an incoming req see (Count)
system.mem_ctrl2.rdQLenPdf::3                       0                       # What read queue length does an incoming req see (Count)
system.mem_ctrl2.rdQLenPdf::4                       0                       # What read queue length does an incoming req see (Count)
system.mem_ctrl2.rdQLenPdf::5                       0                       # What read queue length does an incoming req see (Count)
system.mem_ctrl2.rdQLenPdf::6                       0                       # What read queue length does an incoming req see (Count)
system.mem_ctrl2.rdQLenPdf::7                       0                       # What read queue length does an incoming req see (Count)
system.mem_ctrl2.rdQLenPdf::8                       0                       # What read queue length does an incoming req see (Count)
system.mem_ctrl2.rdQLenPdf::9                       0                       # What read queue length does an incoming req see (Count)
system.mem_ctrl2.rdQLenPdf::10                      0                       # What read queue length does an incoming req see (Count)
system.mem_ctrl2.rdQLenPdf::11                      0                       # What read queue length does an incoming req see (Count)
system.mem_ctrl2.rdQLenPdf::12                      0                       # What read queue length does an incoming req see (Count)
system.mem_ctrl2.rdQLenPdf::13                      0                       # What read queue length does an incoming req see (Count)
system.mem_ctrl2.rdQLenPdf::14                      0                       # What read queue length does an incoming req see (Count)
system.mem_ctrl2.rdQLenPdf::15                      0                       # What read queue length does an incoming req see (Count)
system.mem_ctrl2.rdQLenPdf::16                      0                       # What read queue length does an incoming req see (Count)
system.mem_ctrl2.rdQLenPdf::17                      0                       # What read queue length does an incoming req see (Count)
system.mem_ctrl2.rdQLenPdf::18                      0                       # What read queue length does an incoming req see (Count)
system.mem_ctrl2.rdQLenPdf::19                      0                       # What read queue length does an incoming req see (Count)
system.mem_ctrl2.rdQLenPdf::20                      0                       # What read queue length does an incoming req see (Count)
system.mem_ctrl2.rdQLenPdf::21                      0                       # What read queue length does an incoming req see (Count)
system.mem_ctrl2.rdQLenPdf::22                      0                       # What read queue length does an incoming req see (Count)
system.mem_ctrl2.rdQLenPdf::23                      0                       # What read queue length does an incoming req see (Count)
system.mem_ctrl2.rdQLenPdf::24                      0                       # What read queue length does an incoming req see (Count)
system.mem_ctrl2.rdQLenPdf::25                      0                       # What read queue length does an incoming req see (Count)
system.mem_ctrl2.rdQLenPdf::26                      0                       # What read queue length does an incoming req see (Count)
system.mem_ctrl2.rdQLenPdf::27                      0                       # What read queue length does an incoming req see (Count)
system.mem_ctrl2.rdQLenPdf::28                      0                       # What read queue length does an incoming req see (Count)
system.mem_ctrl2.rdQLenPdf::29                      0                       # What read queue length does an incoming req see (Count)
system.mem_ctrl2.rdQLenPdf::30                      0                       # What read queue length does an incoming req see (Count)
system.mem_ctrl2.rdQLenPdf::31                      0                       # What read queue length does an incoming req see (Count)
system.mem_ctrl2.wrQLenPdf::0                       0                       # What write queue length does an incoming req see (Count)
system.mem_ctrl2.wrQLenPdf::1                       0                       # What write queue length does an incoming req see (Count)
system.mem_ctrl2.wrQLenPdf::2                       0                       # What write queue length does an incoming req see (Count)
system.mem_ctrl2.wrQLenPdf::3                       0                       # What write queue length does an incoming req see (Count)
system.mem_ctrl2.wrQLenPdf::4                       0                       # What write queue length does an incoming req see (Count)
system.mem_ctrl2.wrQLenPdf::5                       0                       # What write queue length does an incoming req see (Count)
system.mem_ctrl2.wrQLenPdf::6                       0                       # What write queue length does an incoming req see (Count)
system.mem_ctrl2.wrQLenPdf::7                       0                       # What write queue length does an incoming req see (Count)
system.mem_ctrl2.wrQLenPdf::8                       0                       # What write queue length does an incoming req see (Count)
system.mem_ctrl2.wrQLenPdf::9                       0                       # What write queue length does an incoming req see (Count)
system.mem_ctrl2.wrQLenPdf::10                      0                       # What write queue length does an incoming req see (Count)
system.mem_ctrl2.wrQLenPdf::11                      0                       # What write queue length does an incoming req see (Count)
system.mem_ctrl2.wrQLenPdf::12                      0                       # What write queue length does an incoming req see (Count)
system.mem_ctrl2.wrQLenPdf::13                      0                       # What write queue length does an incoming req see (Count)
system.mem_ctrl2.wrQLenPdf::14                      0                       # What write queue length does an incoming req see (Count)
system.mem_ctrl2.wrQLenPdf::15                      0                       # What write queue length does an incoming req see (Count)
system.mem_ctrl2.wrQLenPdf::16                      0                       # What write queue length does an incoming req see (Count)
system.mem_ctrl2.wrQLenPdf::17                      0                       # What write queue length does an incoming req see (Count)
system.mem_ctrl2.wrQLenPdf::18                      0                       # What write queue length does an incoming req see (Count)
system.mem_ctrl2.wrQLenPdf::19                      0                       # What write queue length does an incoming req see (Count)
system.mem_ctrl2.wrQLenPdf::20                      0                       # What write queue length does an incoming req see (Count)
system.mem_ctrl2.wrQLenPdf::21                      0                       # What write queue length does an incoming req see (Count)
system.mem_ctrl2.wrQLenPdf::22                      0                       # What write queue length does an incoming req see (Count)
system.mem_ctrl2.wrQLenPdf::23                      0                       # What write queue length does an incoming req see (Count)
system.mem_ctrl2.wrQLenPdf::24                      0                       # What write queue length does an incoming req see (Count)
system.mem_ctrl2.wrQLenPdf::25                      0                       # What write queue length does an incoming req see (Count)
system.mem_ctrl2.wrQLenPdf::26                      0                       # What write queue length does an incoming req see (Count)
system.mem_ctrl2.wrQLenPdf::27                      0                       # What write queue length does an incoming req see (Count)
system.mem_ctrl2.wrQLenPdf::28                      0                       # What write queue length does an incoming req see (Count)
system.mem_ctrl2.wrQLenPdf::29                      0                       # What write queue length does an incoming req see (Count)
system.mem_ctrl2.wrQLenPdf::30                      0                       # What write queue length does an incoming req see (Count)
system.mem_ctrl2.wrQLenPdf::31                      0                       # What write queue length does an incoming req see (Count)
system.mem_ctrl2.wrQLenPdf::32                      0                       # What write queue length does an incoming req see (Count)
system.mem_ctrl2.wrQLenPdf::33                      0                       # What write queue length does an incoming req see (Count)
system.mem_ctrl2.wrQLenPdf::34                      0                       # What write queue length does an incoming req see (Count)
system.mem_ctrl2.wrQLenPdf::35                      0                       # What write queue length does an incoming req see (Count)
system.mem_ctrl2.wrQLenPdf::36                      0                       # What write queue length does an incoming req see (Count)
system.mem_ctrl2.wrQLenPdf::37                      0                       # What write queue length does an incoming req see (Count)
system.mem_ctrl2.wrQLenPdf::38                      0                       # What write queue length does an incoming req see (Count)
system.mem_ctrl2.wrQLenPdf::39                      0                       # What write queue length does an incoming req see (Count)
system.mem_ctrl2.wrQLenPdf::40                      0                       # What write queue length does an incoming req see (Count)
system.mem_ctrl2.wrQLenPdf::41                      0                       # What write queue length does an incoming req see (Count)
system.mem_ctrl2.wrQLenPdf::42                      0                       # What write queue length does an incoming req see (Count)
system.mem_ctrl2.wrQLenPdf::43                      0                       # What write queue length does an incoming req see (Count)
system.mem_ctrl2.wrQLenPdf::44                      0                       # What write queue length does an incoming req see (Count)
system.mem_ctrl2.wrQLenPdf::45                      0                       # What write queue length does an incoming req see (Count)
system.mem_ctrl2.wrQLenPdf::46                      0                       # What write queue length does an incoming req see (Count)
system.mem_ctrl2.wrQLenPdf::47                      0                       # What write queue length does an incoming req see (Count)
system.mem_ctrl2.wrQLenPdf::48                      0                       # What write queue length does an incoming req see (Count)
system.mem_ctrl2.wrQLenPdf::49                      0                       # What write queue length does an incoming req see (Count)
system.mem_ctrl2.wrQLenPdf::50                      0                       # What write queue length does an incoming req see (Count)
system.mem_ctrl2.wrQLenPdf::51                      0                       # What write queue length does an incoming req see (Count)
system.mem_ctrl2.wrQLenPdf::52                      0                       # What write queue length does an incoming req see (Count)
system.mem_ctrl2.wrQLenPdf::53                      0                       # What write queue length does an incoming req see (Count)
system.mem_ctrl2.wrQLenPdf::54                      0                       # What write queue length does an incoming req see (Count)
system.mem_ctrl2.wrQLenPdf::55                      0                       # What write queue length does an incoming req see (Count)
system.mem_ctrl2.wrQLenPdf::56                      0                       # What write queue length does an incoming req see (Count)
system.mem_ctrl2.wrQLenPdf::57                      0                       # What write queue length does an incoming req see (Count)
system.mem_ctrl2.wrQLenPdf::58                      0                       # What write queue length does an incoming req see (Count)
system.mem_ctrl2.wrQLenPdf::59                      0                       # What write queue length does an incoming req see (Count)
system.mem_ctrl2.wrQLenPdf::60                      0                       # What write queue length does an incoming req see (Count)
system.mem_ctrl2.wrQLenPdf::61                      0                       # What write queue length does an incoming req see (Count)
system.mem_ctrl2.wrQLenPdf::62                      0                       # What write queue length does an incoming req see (Count)
system.mem_ctrl2.wrQLenPdf::63                      0                       # What write queue length does an incoming req see (Count)
system.mem_ctrl2.bytesReadWrQ                       0                       # Total number of bytes read from write queue (Byte)
system.mem_ctrl2.bytesReadSys                       0                       # Total read bytes from the system interface side (Byte)
system.mem_ctrl2.bytesWrittenSys                    0                       # Total written bytes from the system interface side (Byte)
system.mem_ctrl2.avgRdBWSys                0.00000000                       # Average system read bandwidth in Byte/s ((Byte/Second))
system.mem_ctrl2.avgWrBWSys                0.00000000                       # Average system write bandwidth in Byte/s ((Byte/Second))
system.mem_ctrl2.totGap                             0                       # Total gap between requests (Tick)
system.mem_ctrl2.avgGap                           nan                       # Average gap between requests ((Tick/Count))
system.mem_ctrl2.dram.readBursts                    0                       # Number of DRAM read bursts (Count)
system.mem_ctrl2.dram.writeBursts                   0                       # Number of DRAM write bursts (Count)
system.mem_ctrl2.dram.perBankRdBursts::0            0                       # Per bank write bursts (Count)
system.mem_ctrl2.dram.perBankRdBursts::1            0                       # Per bank write bursts (Count)
system.mem_ctrl2.dram.perBankRdBursts::2            0                       # Per bank write bursts (Count)
system.mem_ctrl2.dram.perBankRdBursts::3            0                       # Per bank write bursts (Count)
system.mem_ctrl2.dram.perBankRdBursts::4            0                       # Per bank write bursts (Count)
system.mem_ctrl2.dram.perBankRdBursts::5            0                       # Per bank write bursts (Count)
system.mem_ctrl2.dram.perBankRdBursts::6            0                       # Per bank write bursts (Count)
system.mem_ctrl2.dram.perBankRdBursts::7            0                       # Per bank write bursts (Count)
system.mem_ctrl2.dram.perBankRdBursts::8            0                       # Per bank write bursts (Count)
system.mem_ctrl2.dram.perBankRdBursts::9            0                       # Per bank write bursts (Count)
system.mem_ctrl2.dram.perBankRdBursts::10            0                       # Per bank write bursts (Count)
system.mem_ctrl2.dram.perBankRdBursts::11            0                       # Per bank write bursts (Count)
system.mem_ctrl2.dram.perBankRdBursts::12            0                       # Per bank write bursts (Count)
system.mem_ctrl2.dram.perBankRdBursts::13            0                       # Per bank write bursts (Count)
system.mem_ctrl2.dram.perBankRdBursts::14            0                       # Per bank write bursts (Count)
system.mem_ctrl2.dram.perBankRdBursts::15            0                       # Per bank write bursts (Count)
system.mem_ctrl2.dram.perBankWrBursts::0            0                       # Per bank write bursts (Count)
system.mem_ctrl2.dram.perBankWrBursts::1            0                       # Per bank write bursts (Count)
system.mem_ctrl2.dram.perBankWrBursts::2            0                       # Per bank write bursts (Count)
system.mem_ctrl2.dram.perBankWrBursts::3            0                       # Per bank write bursts (Count)
system.mem_ctrl2.dram.perBankWrBursts::4            0                       # Per bank write bursts (Count)
system.mem_ctrl2.dram.perBankWrBursts::5            0                       # Per bank write bursts (Count)
system.mem_ctrl2.dram.perBankWrBursts::6            0                       # Per bank write bursts (Count)
[...]
system.mem_ctrl3.wrQLenPdf::50                      0                       # What write queue length does an incoming req see (Count)
system.mem_ctrl3.wrQLenPdf::51                      0                       # What write queue length does an incoming req see (Count)
system.mem_ctrl3.wrQLenPdf::52                      0                       # What write queue length does an incoming req see (Count)
system.mem_ctrl3.wrQLenPdf::53                      0                       # What write queue length does an incoming req see (Count)
system.mem_ctrl3.wrQLenPdf::54                      0                       # What write queue length does an incoming req see (Count)
system.mem_ctrl3.wrQLenPdf::55                      0                       # What write queue length does an incoming req see (Count)
system.mem_ctrl3.wrQLenPdf::56                      0                       # What write queue length does an incoming req see (Count)
system.mem_ctrl3.wrQLenPdf::57                      0                       # What write queue length does an incoming req see (Count)
system.mem_ctrl3.wrQLenPdf::58                      0                       # What write queue length does an incoming req see (Count)
system.mem_ctrl3.wrQLenPdf::59                      0                       # What write queue length does an incoming req see (Count)
system.mem_ctrl3.wrQLenPdf::60                      0                       # What write queue length does an incoming req see (Count)
system.mem_ctrl3.wrQLenPdf::61                      0                       # What write queue length does an incoming req see (Count)
system.mem_ctrl3.wrQLenPdf::62                      0                       # What write queue length does an incoming req see (Count)
system.mem_ctrl3.wrQLenPdf::63                      0                       # What write queue length does an incoming req see (Count)
system.mem_ctrl3.bytesReadWrQ                       0                       # Total number of bytes read from write queue (Byte)
system.mem_ctrl3.bytesReadSys                       0                       # Total read bytes from the system interface side (Byte)
system.mem_ctrl3.bytesWrittenSys                    0                       # Total written bytes from the system interface side (Byte)
system.mem_ctrl3.avgRdBWSys                0.00000000                       # Average system read bandwidth in Byte/s ((Byte/Second))
system.mem_ctrl3.avgWrBWSys                0.00000000                       # Average system write bandwidth in Byte/s ((Byte/Second))
system.mem_ctrl3.totGap                             0                       # Total gap between requests (Tick)
system.mem_ctrl3.avgGap                           nan                       # Average gap between requests ((Tick/Count))
system.mem_ctrl3.dram.readBursts                    0                       # Number of DRAM read bursts (Count)
system.mem_ctrl3.dram.writeBursts                   0                       # Number of DRAM write bursts (Count)
system.mem_ctrl3.dram.perBankRdBursts::0            0                       # Per bank write bursts (Count)
system.mem_ctrl3.dram.perBankRdBursts::1            0                       # Per bank write bursts (Count)
system.mem_ctrl3.dram.perBankRdBursts::2            0                       # Per bank write bursts (Count)
system.mem_ctrl3.dram.perBankRdBursts::3            0                       # Per bank write bursts (Count)
system.mem_ctrl3.dram.perBankRdBursts::4            0                       # Per bank write bursts (Count)
system.mem_ctrl3.dram.perBankRdBursts::5            0                       # Per bank write bursts (Count)
system.mem_ctrl3.dram.perBankRdBursts::6            0                       # Per bank write bursts (Count)
system.mem_ctrl3.dram.perBankRdBursts::7            0                       # Per bank write bursts (Count)
system.mem_ctrl3.dram.perBankRdBursts::8            0                       # Per bank write bursts (Count)
system.mem_ctrl3.dram.perBankRdBursts::9            0                       # Per bank write bursts (Count)
system.mem_ctrl3.dram.perBankRdBursts::10            0                       # Per bank write bursts (Count)
system.mem_ctrl3.dram.perBankRdBursts::11            0                       # Per bank write bursts (Count)
system.mem_ctrl3.dram.perBankRdBursts::12            0                       # Per bank write bursts (Count)
system.mem_ctrl3.dram.perBankRdBursts::13            0                       # Per bank write bursts (Count)
system.mem_ctrl3.dram.perBankRdBursts::14            0                       # Per bank write bursts (Count)
system.mem_ctrl3.dram.perBankRdBursts::15            0                       # Per bank write bursts (Count)
system.mem_ctrl3.dram.perBankWrBursts::0            0                       # Per bank write bursts (Count)
system.mem_ctrl3.dram.perBankWrBursts::1            0                       # Per bank write bursts (Count)
system.mem_ctrl3.dram.perBankWrBursts::2            0                       # Per bank write bursts (Count)
system.mem_ctrl3.dram.perBankWrBursts::3            0                       # Per bank write bursts (Count)
system.mem_ctrl3.dram.perBankWrBursts::4            0                       # Per bank write bursts (Count)
system.mem_ctrl3.dram.perBankWrBursts::5            0                       # Per bank write bursts (Count)
system.mem_ctrl3.dram.perBankWrBursts::6            0                       # Per bank write bursts (Count)
system.mem_ctrl3.dram.perBankWrBursts::7            0                       # Per bank write bursts (Count)
system.mem_ctrl3.dram.perBankWrBursts::8            0                       # Per bank write bursts (Count)
system.mem_ctrl3.dram.perBankWrBursts::9            0                       # Per bank write bursts (Count)
system.mem_ctrl3.dram.perBankWrBursts::10            0                       # Per bank write bursts (Count)
system.mem_ctrl3.dram.perBankWrBursts::11            0                       # Per bank write bursts (Count)
system.mem_ctrl3.dram.perBankWrBursts::12            0                       # Per bank write bursts (Count)
system.mem_ctrl3.dram.perBankWrBursts::13            0                       # Per bank write bursts (Count)
system.mem_ctrl3.dram.perBankWrBursts::14            0                       # Per bank write bursts (Count)
system.mem_ctrl3.dram.perBankWrBursts::15            0                       # Per bank write bursts (Count)
system.mem_ctrl3.dram.totQLat                       0                       # Total ticks spent queuing (Tick)
system.mem_ctrl3.dram.totBusLat                     0                       # Total ticks spent in databus transfers (Tick)
system.mem_ctrl3.dram.totMemAccLat                  0                       # Total ticks spent from burst creation until serviced by the DRAM (Tick)
system.mem_ctrl3.dram.avgQLat                     nan                       # Average queueing delay per DRAM burst ((Tick/Count))
system.mem_ctrl3.dram.avgBusLat                   nan                       # Average bus latency per DRAM burst ((Tick/Count))
system.mem_ctrl3.dram.avgMemAccLat                nan                       # Average memory access latency per DRAM burst ((Tick/Count))
system.mem_ctrl3.dram.readRowHits                   0                       # Number of row buffer hits during reads (Count)
system.mem_ctrl3.dram.writeRowHits                  0                       # Number of row buffer hits during writes (Count)
system.mem_ctrl3.dram.readRowHitRate              nan                       # Row buffer hit rate for reads (Ratio)
system.mem_ctrl3.dram.writeRowHitRate             nan                       # Row buffer hit rate for writes (Ratio)
system.mem_ctrl3.dram.dramBytesRead                 0                       # Total bytes read (Byte)
system.mem_ctrl3.dram.dramBytesWritten              0                       # Total bytes written (Byte)
system.mem_ctrl3.dram.avgRdBW                       0                       # Average DRAM read bandwidth in MiBytes/s ((Byte/Second))
system.mem_ctrl3.dram.avgWrBW                       0                       # Average DRAM write bandwidth in MiBytes/s ((Byte/Second))
system.mem_ctrl3.dram.peakBW                 12800.00                       # Theoretical peak bandwidth in MiByte/s ((Byte/Second))
system.mem_ctrl3.dram.busUtil                    0.00                       # Data bus utilization in percentage (Ratio)
system.mem_ctrl3.dram.busUtilRead                0.00                       # Data bus utilization in percentage for reads (Ratio)
system.mem_ctrl3.dram.busUtilWrite               0.00                       # Data bus utilization in percentage for writes (Ratio)
system.mem_ctrl3.dram.pageHitRate                 nan                       # Row buffer hit rate, read and write combined (Ratio)
system.mem_ctrl3.dram.power_state.pwrStateResidencyTicks::UNDEFINED 6340191708500                       # Cumulative time (in ticks) in various power states (Tick)
system.mem_ctrl3.dram.rank0.actEnergy               0                       # Energy for activate commands per rank (pJ) (Joule)
system.mem_ctrl3.dram.rank0.preEnergy               0                       # Energy for precharge commands per rank (pJ) (Joule)
system.mem_ctrl3.dram.rank0.readEnergy              0                       # Energy for read commands per rank (pJ) (Joule)
system.mem_ctrl3.dram.rank0.writeEnergy             0                       # Energy for write commands per rank (pJ) (Joule)
system.mem_ctrl3.dram.rank0.refreshEnergy 500489059200.000061                       # Energy for refresh commands per rank (pJ) (Joule)
system.mem_ctrl3.dram.rank0.actBackEnergy  91435501200                       # Energy for active background per rank (pJ) (Joule)
system.mem_ctrl3.dram.rank0.preBackEnergy 2357635299360                       # Energy for precharge background per rank (pJ) (Joule)
system.mem_ctrl3.dram.rank0.actPowerDownEnergy            0                       # Energy for active power-down per rank (pJ) (Joule)
system.mem_ctrl3.dram.rank0.prePowerDownEnergy            0                       # Energy for precharge power-down per rank (pJ) (Joule)
system.mem_ctrl3.dram.rank0.selfRefreshEnergy            0                       # Energy for self refresh per rank (pJ) (Joule)
system.mem_ctrl3.dram.rank0.totalEnergy  2949559859760                       # Total energy per rank (pJ) (Joule)
system.mem_ctrl3.dram.rank0.averagePower   465.216195                       # Core power per rank (mW) (Watt)
system.mem_ctrl3.dram.rank0.totalIdleTime            0                       # Total Idle time Per DRAM Rank (Tick)
system.mem_ctrl3.dram.rank0.pwrStateTime::IDLE 6128478908500                       # Time in different power states (Tick)
system.mem_ctrl3.dram.rank0.pwrStateTime::REF 211712800000                       # Time in different power states (Tick)
system.mem_ctrl3.dram.rank0.pwrStateTime::SREF            0                       # Time in different power states (Tick)
system.mem_ctrl3.dram.rank0.pwrStateTime::PRE_PDN            0                       # Time in different power states (Tick)
system.mem_ctrl3.dram.rank0.pwrStateTime::ACT            0                       # Time in different power states (Tick)
system.mem_ctrl3.dram.rank0.pwrStateTime::ACT_PDN            0                       # Time in different power states (Tick)
system.mem_ctrl3.dram.rank1.actEnergy               0                       # Energy for activate commands per rank (pJ) (Joule)
system.mem_ctrl3.dram.rank1.preEnergy               0                       # Energy for precharge commands per rank (pJ) (Joule)
system.mem_ctrl3.dram.rank1.readEnergy              0                       # Energy for read commands per rank (pJ) (Joule)
system.mem_ctrl3.dram.rank1.writeEnergy             0                       # Energy for write commands per rank (pJ) (Joule)
system.mem_ctrl3.dram.rank1.refreshEnergy 500489059200.000061                       # Energy for refresh commands per rank (pJ) (Joule)
system.mem_ctrl3.dram.rank1.actBackEnergy  91435501200                       # Energy for active background per rank (pJ) (Joule)
system.mem_ctrl3.dram.rank1.preBackEnergy 2357635299360                       # Energy for precharge background per rank (pJ) (Joule)
system.mem_ctrl3.dram.rank1.actPowerDownEnergy            0                       # Energy for active power-down per rank (pJ) (Joule)
system.mem_ctrl3.dram.rank1.prePowerDownEnergy            0                       # Energy for precharge power-down per rank (pJ) (Joule)
system.mem_ctrl3.dram.rank1.selfRefreshEnergy            0                       # Energy for self refresh per rank (pJ) (Joule)
system.mem_ctrl3.dram.rank1.totalEnergy  2949559859760                       # Total energy per rank (pJ) (Joule)
system.mem_ctrl3.dram.rank1.averagePower   465.216195                       # Core power per rank (mW) (Watt)
system.mem_ctrl3.dram.rank1.totalIdleTime            0                       # Total Idle time Per DRAM Rank (Tick)
system.mem_ctrl3.dram.rank1.pwrStateTime::IDLE 6128478908500                       # Time in different power states (Tick)
system.mem_ctrl3.dram.rank1.pwrStateTime::REF 211712800000                       # Time in different power states (Tick)
system.mem_ctrl3.dram.rank1.pwrStateTime::SREF            0                       # Time in different power states (Tick)
system.mem_ctrl3.dram.rank1.pwrStateTime::PRE_PDN            0                       # Time in different power states (Tick)
system.mem_ctrl3.dram.rank1.pwrStateTime::ACT            0                       # Time in different power states (Tick)
system.mem_ctrl3.dram.rank1.pwrStateTime::ACT_PDN            0                       # Time in different power states (Tick)
system.mem_ctrl3.power_state.pwrStateResidencyTicks::UNDEFINED 6340191708500                       # Cumulative time (in ticks) in various power states (Tick)
system.membus.transDist::ReadReq             37294837                       # Transaction distribution (Count)
system.membus.transDist::ReadResp            37294837                       # Transaction distribution (Count)
system.membus.transDist::WriteReq             6482697                       # Transaction distribution (Count)
system.membus.transDist::WriteResp            6482697                       # Transaction distribution (Count)
system.membus.transDist::LockedRMWReadReq        60096                       # Transaction distribution (Count)
system.membus.transDist::LockedRMWReadResp        60096                       # Transaction distribution (Count)
system.membus.transDist::LockedRMWWriteReq        60096                       # Transaction distribution (Count)
system.membus.transDist::LockedRMWWriteResp        60096                       # Transaction distribution (Count)
system.membus.pktCount_system.cpu.icache_port::system.journal.cpu_side_port     59613076                       # Packet count per connected requestor and responder (Count)
system.membus.pktCount_system.cpu.icache_port::total     59613076                       # Packet count per connected requestor and responder (Count)
system.membus.pktCount_system.cpu.dcache_port::system.journal.cpu_side_port     28182376                       # Packet count per connected requestor and responder (Count)
system.membus.pktCount_system.cpu.dcache_port::total     28182376                       # Packet count per connected requestor and responder (Count)
system.membus.pktCount::total                87795452                       # Packet count per connected requestor and responder (Count)
system.membus.pktSize_system.cpu.icache_port::system.journal.cpu_side_port    238452304                       # Cumulative packet size per connected requestor and responder (Byte)
system.membus.pktSize_system.cpu.icache_port::total    238452304                       # Cumulative packet size per connected requestor and responder (Byte)
system.membus.pktSize_system.cpu.dcache_port::system.journal.cpu_side_port    108431928                       # Cumulative packet size per connected requestor and responder (Byte)
system.membus.pktSize_system.cpu.dcache_port::total    108431928                       # Cumulative packet size per connected requestor and responder (Byte)
system.membus.pktSize::total                346884232                       # Cumulative packet size per connected requestor and responder (Byte)
system.membus.snoops                                0                       # Total snoops (Count)
system.membus.snoopTraffic                          0                       # Total snoop traffic (Byte)
system.membus.snoopFanout::samples           43897726                       # Request fanout histogram (Count)
system.membus.snoopFanout::mean                     0                       # Request fanout histogram (Count)
system.membus.snoopFanout::stdev                    0                       # Request fanout histogram (Count)
system.membus.snoopFanout::underflows               0      0.00%      0.00% # Request fanout histogram (Count)
system.membus.snoopFanout::0                 43897726    100.00%    100.00% # Request fanout histogram (Count)
system.membus.snoopFanout::1                        0      0.00%    100.00% # Request fanout histogram (Count)
system.membus.snoopFanout::overflows                0      0.00%    100.00% # Request fanout histogram (Count)
system.membus.snoopFanout::min_value                0                       # Request fanout histogram (Count)
system.membus.snoopFanout::max_value                0                       # Request fanout histogram (Count)
system.membus.snoopFanout::total             43897726                       # Request fanout histogram (Count)
system.membus.power_state.pwrStateResidencyTicks::UNDEFINED 6340191708500                       # Cumulative time (in ticks) in various power states (Tick)
system.membus.reqLayer2.occupancy         25220259500                       # Layer occupancy (ticks) (Tick)
system.membus.reqLayer2.utilization               0.0                       # Layer utilization (Ratio)
system.membus.respLayer0.occupancy        36776702750                       # Layer occupancy (ticks) (Tick)
system.membus.respLayer0.utilization              0.0                       # Layer utilization (Ratio)
system.membus.respLayer1.occupancy        12187487000                       # Layer occupancy (ticks) (Tick)
system.membus.respLayer1.utilization              0.0                       # Layer utilization (Ratio)
system.membus.snoop_filter.totRequests              0                       # Total number of requests made to the snoop filter. (Count)
system.membus.snoop_filter.hitSingleRequests            0                       # Number of requests hitting in the snoop filter with a single holder of the requested data. (Count)
system.membus.snoop_filter.hitMultiRequests            0                       # Number of requests hitting in the snoop filter with multiple (>1) holders of the requested data. (Count)
system.membus.snoop_filter.totSnoops                0                       # Total number of snoops made to the snoop filter. (Count)
system.membus.snoop_filter.hitSingleSnoops            0                       # Number of snoops hitting in the snoop filter with a single holder of the requested data. (Count)
system.membus.snoop_filter.hitMultiSnoops            0                       # Number of snoops hitting in the snoop filter with multiple (>1) holders of the requested data. (Count)
system.workload.inst.arm                            0                       # number of arm instructions executed (Count)
system.workload.inst.quiesce                        0                       # number of quiesce instructions executed (Count)

---------- End Simulation Statistics   ----------
