
---------- Begin Simulation Statistics ----------
simSeconds                                  14.255682                       # Number of seconds simulated (Second)
simTicks                                 14255682233000                       # Number of ticks simulated (Tick)
finalTick                                14255682233000                       # Number of ticks from beginning of simulation (restored from checkpoints and never reset) (Tick)
simFreq                                  1000000000000                       # The number of ticks per simulated second ((Tick/Second))
hostSeconds                                    184.26                       # Real time elapsed on the host (Second)
hostTickRate                              77365172596                       # The number of ticks simulated per host second (ticks/s) ((Tick/Second))
hostMemory                                     697300                       # Number of bytes of host memory used (Byte)
simInsts                                     51135430                       # Number of instructions simulated (Count)
simOps                                       97403168                       # Number of ops (including micro ops) simulated (Count)
hostInstRate                                   277510                       # Simulator instruction rate (inst/s) ((Count/Second))
hostOpRate                                     528604                       # Simulator op (including micro ops) rate (op/s) ((Count/Second))
system.clk_domain.clock                           500                       # Clock period in ticks (Tick)
system.clk_domain.voltage_domain.voltage            1                       # Voltage in Volts (Volt)
system.cpu.numCycles                      28511364466                       # Number of cpu cycles simulated (Cycle)
system.cpu.cpi                             557.564596                       # CPI: cycles per instruction (core level) ((Cycle/Count))
system.cpu.ipc                               0.001794                       # IPC: instructions per cycle (core level) ((Count/Cycle))
system.cpu.numWorkItemsStarted                      0                       # Number of work items this cpu started (Count)
system.cpu.numWorkItemsCompleted                    0                       # Number of work items this cpu completed (Count)
system.cpu.commitStats0.numInsts             51135536                       # Number of instructions committed (thread level) (Count)
system.cpu.commitStats0.numOps               97403276                       # Number of ops (including micro ops) committed (thread level) (Count)
system.cpu.commitStats0.numInstsNotNOP              0                       # Number of instructions committed excluding NOPs or prefetches (Count)
system.cpu.commitStats0.numOpsNotNOP                0                       # Number of Ops (including micro ops) Simulated (Count)
system.cpu.commitStats0.cpi                557.564596                       # CPI: cycles per instruction (thread level) ((Cycle/Count))
system.cpu.commitStats0.ipc                  0.001794                       # IPC: instructions per cycle (thread level) ((Count/Cycle))
system.cpu.commitStats0.numMemRefs                  0                       # Number of memory references committed (Count)
system.cpu.commitStats0.numFpInsts             253940                       # Number of float instructions (Count)
system.cpu.commitStats0.numIntInsts          96729092                       # Number of integer instructions (Count)
system.cpu.commitStats0.numLoadInsts         17283528                       # Number of load instructions (Count)
system.cpu.commitStats0.numStoreInsts        14645955                       # Number of store instructions (Count)
system.cpu.commitStats0.numVecInsts                 0                       # Number of vector instructions (Count)
system.cpu.commitStats0.committedInstType::No_OpClass       146660      0.15%      0.15% # Class of committed instruction. (Count)
system.cpu.commitStats0.committedInstType::IntAlu     64825122     66.55%     66.70% # Class of committed instruction. (Count)
system.cpu.commitStats0.committedInstType::IntMult          166      0.00%     66.70% # Class of committed instruction. (Count)
system.cpu.commitStats0.committedInstType::IntDiv       350160      0.36%     67.06% # Class of committed instruction. (Count)
system.cpu.commitStats0.committedInstType::FloatAdd        68049      0.07%     67.13% # Class of committed instruction. (Count)
system.cpu.commitStats0.committedInstType::FloatCmp            0      0.00%     67.13% # Class of committed instruction. (Count)
system.cpu.commitStats0.committedInstType::FloatCvt            0      0.00%     67.13% # Class of committed instruction. (Count)
system.cpu.commitStats0.committedInstType::FloatMult            0      0.00%     67.13% # Class of committed instruction. (Count)
system.cpu.commitStats0.committedInstType::FloatMultAcc            0      0.00%     67.13% # Class of committed instruction. (Count)
system.cpu.commitStats0.committedInstType::FloatDiv            0      0.00%     67.13% # Class of committed instruction. (Count)
system.cpu.commitStats0.committedInstType::FloatMisc            0      0.00%     67.13% # Class of committed instruction. (Count)
system.cpu.commitStats0.committedInstType::FloatSqrt            0      0.00%     67.13% # Class of committed instruction. (Count)
system.cpu.commitStats0.committedInstType::SimdAdd          264      0.00%     67.13% # Class of committed instruction. (Count)
system.cpu.commitStats0.committedInstType::SimdAddAcc            0      0.00%     67.13% # Class of committed instruction. (Count)
system.cpu.commitStats0.committedInstType::SimdAlu         9770      0.01%     67.14% # Class of committed instruction. (Count)
system.cpu.commitStats0.committedInstType::SimdCmp            0      0.00%     67.14% # Class of committed instruction. (Count)
system.cpu.commitStats0.committedInstType::SimdCvt         2496      0.00%     67.15% # Class of committed instruction. (Count)
system.cpu.commitStats0.committedInstType::SimdMisc        71094      0.07%     67.22% # Class of committed instruction. (Count)
system.cpu.commitStats0.committedInstType::SimdMult            0      0.00%     67.22% # Class of committed instruction. (Count)
system.cpu.commitStats0.committedInstType::SimdMultAcc            0      0.00%     67.22% # Class of committed instruction. (Count)
system.cpu.commitStats0.committedInstType::SimdMatMultAcc            0      0.00%     67.22% # Class of committed instruction. (Count)
system.cpu.commitStats0.committedInstType::SimdShift            0      0.00%     67.22% # Class of committed instruction. (Count)
system.cpu.commitStats0.committedInstType::SimdShiftAcc            0      0.00%     67.22% # Class of committed instruction. (Count)
system.cpu.commitStats0.committedInstType::SimdDiv            0      0.00%     67.22% # Class of committed instruction. (Count)
system.cpu.commitStats0.committedInstType::SimdSqrt            0      0.00%     67.22% # Class of committed instruction. (Count)
system.cpu.commitStats0.committedInstType::SimdFloatAdd            0      0.00%     67.22% # Class of committed instruction. (Count)
system.cpu.commitStats0.committedInstType::SimdFloatAlu            0      0.00%     67.22% # Class of committed instruction. (Count)
system.cpu.commitStats0.committedInstType::SimdFloatCmp            0      0.00%     67.22% # Class of committed instruction. (Count)
system.cpu.commitStats0.committedInstType::SimdFloatCvt            9      0.00%     67.22% # Class of committed instruction. (Count)
system.cpu.commitStats0.committedInstType::SimdFloatDiv            3      0.00%     67.22% # Class of committed instruction. (Count)
system.cpu.commitStats0.committedInstType::SimdFloatMisc            0      0.00%     67.22% # Class of committed instruction. (Count)
system.cpu.commitStats0.committedInstType::SimdFloatMult            0      0.00%     67.22% # Class of committed instruction. (Count)
system.cpu.commitStats0.committedInstType::SimdFloatMultAcc            0      0.00%     67.22% # Class of committed instruction. (Count)
system.cpu.commitStats0.committedInstType::SimdFloatMatMultAcc            0      0.00%     67.22% # Class of committed instruction. (Count)
system.cpu.commitStats0.committedInstType::SimdFloatSqrt            0      0.00%     67.22% # Class of committed instruction. (Count)
system.cpu.commitStats0.committedInstType::SimdReduceAdd            0      0.00%     67.22% # Class of committed instruction. (Count)
system.cpu.commitStats0.committedInstType::SimdReduceAlu            0      0.00%     67.22% # Class of committed instruction. (Count)
system.cpu.commitStats0.committedInstType::SimdReduceCmp            0      0.00%     67.22% # Class of committed instruction. (Count)
system.cpu.commitStats0.committedInstType::SimdFloatReduceAdd            0      0.00%     67.22% # Class of committed instruction. (Count)
system.cpu.commitStats0.committedInstType::SimdFloatReduceCmp            0      0.00%     67.22% # Class of committed instruction. (Count)
system.cpu.commitStats0.committedInstType::SimdAes            0      0.00%     67.22% # Class of committed instruction. (Count)
system.cpu.commitStats0.committedInstType::SimdAesMix            0      0.00%     67.22% # Class of committed instruction. (Count)
system.cpu.commitStats0.committedInstType::SimdSha1Hash            0      0.00%     67.22% # Class of committed instruction. (Count)
system.cpu.commitStats0.committedInstType::SimdSha1Hash2            0      0.00%     67.22% # Class of committed instruction. (Count)
system.cpu.commitStats0.committedInstType::SimdSha256Hash            0      0.00%     67.22% # Class of committed instruction. (Count)
system.cpu.commitStats0.committedInstType::SimdSha256Hash2            0      0.00%     67.22% # Class of committed instruction. (Count)
system.cpu.commitStats0.committedInstType::SimdShaSigma2            0      0.00%     67.22% # Class of committed instruction. (Count)
system.cpu.commitStats0.committedInstType::SimdShaSigma3            0      0.00%     67.22% # Class of committed instruction. (Count)
system.cpu.commitStats0.committedInstType::SimdPredAlu            0      0.00%     67.22% # Class of committed instruction. (Count)
system.cpu.commitStats0.committedInstType::Matrix            0      0.00%     67.22% # Class of committed instruction. (Count)
system.cpu.commitStats0.committedInstType::MatrixMov            0      0.00%     67.22% # Class of committed instruction. (Count)
system.cpu.commitStats0.committedInstType::MatrixOP            0      0.00%     67.22% # Class of committed instruction. (Count)
system.cpu.commitStats0.committedInstType::MemRead     17280765     17.74%     84.96% # Class of committed instruction. (Count)
system.cpu.commitStats0.committedInstType::MemWrite     14584233     14.97%     99.93% # Class of committed instruction. (Count)
system.cpu.commitStats0.committedInstType::FloatMemRead         2763      0.00%     99.94% # Class of committed instruction. (Count)
system.cpu.commitStats0.committedInstType::FloatMemWrite        61722      0.06%    100.00% # Class of committed instruction. (Count)
system.cpu.commitStats0.committedInstType::IprAccess            0      0.00%    100.00% # Class of committed instruction. (Count)
system.cpu.commitStats0.committedInstType::InstPrefetch            0      0.00%    100.00% # Class of committed instruction. (Count)
system.cpu.commitStats0.committedInstType::VectorUnitStrideLoad            0      0.00%    100.00% # Class of committed instruction. (Count)
system.cpu.commitStats0.committedInstType::VectorUnitStrideStore            0      0.00%    100.00% # Class of committed instruction. (Count)
system.cpu.commitStats0.committedInstType::VectorUnitStrideMaskLoad            0      0.00%    100.00% # Class of committed instruction. (Count)
system.cpu.commitStats0.committedInstType::VectorUnitStrideMaskStore            0      0.00%    100.00% # Class of committed instruction. (Count)
system.cpu.commitStats0.committedInstType::VectorStridedLoad            0      0.00%    100.00% # Class of committed instruction. (Count)
system.cpu.commitStats0.committedInstType::VectorStridedStore            0      0.00%    100.00% # Class of committed instruction. (Count)
system.cpu.commitStats0.committedInstType::VectorIndexedLoad            0      0.00%    100.00% # Class of committed instruction. (Count)
system.cpu.commitStats0.committedInstType::VectorIndexedStore            0      0.00%    100.00% # Class of committed instruction. (Count)
system.cpu.commitStats0.committedInstType::VectorUnitStrideFaultOnlyFirstLoad            0      0.00%    100.00% # Class of committed instruction. (Count)
system.cpu.commitStats0.committedInstType::VectorWholeRegisterLoad            0      0.00%    100.00% # Class of committed instruction. (Count)
system.cpu.commitStats0.committedInstType::VectorWholeRegisterStore            0      0.00%    100.00% # Class of committed instruction. (Count)
system.cpu.commitStats0.committedInstType::VectorIntegerArith            0      0.00%    100.00% # Class of committed instruction. (Count)
system.cpu.commitStats0.committedInstType::VectorFloatArith            0      0.00%    100.00% # Class of committed instruction. (Count)
system.cpu.commitStats0.committedInstType::VectorFloatConvert            0      0.00%    100.00% # Class of committed instruction. (Count)
system.cpu.commitStats0.committedInstType::VectorIntegerReduce            0      0.00%    100.00% # Class of committed instruction. (Count)
system.cpu.commitStats0.committedInstType::VectorFloatReduce            0      0.00%    100.00% # Class of committed instruction. (Count)
system.cpu.commitStats0.committedInstType::VectorMisc            0      0.00%    100.00% # Class of committed instruction. (Count)
system.cpu.commitStats0.committedInstType::VectorIntegerExtension            0      0.00%    100.00% # Class of committed instruction. (Count)
system.cpu.commitStats0.committedInstType::VectorConfig            0      0.00%    100.00% # Class of committed instruction. (Count)
system.cpu.commitStats0.committedInstType::total     97403276                       # Class of committed instruction. (Count)
system.cpu.commitStats0.committedControl::IsControl      9719177                       # Class of control type instructions committed (Count)
system.cpu.commitStats0.committedControl::IsDirectControl      5949839                       # Class of control type instructions committed (Count)
system.cpu.commitStats0.committedControl::IsIndirectControl      3769338                       # Class of control type instructions committed (Count)
system.cpu.commitStats0.committedControl::IsCondControl      1869902                       # Class of control type instructions committed (Count)
system.cpu.commitStats0.committedControl::IsUncondControl      7849275                       # Class of control type instructions committed (Count)
system.cpu.commitStats0.committedControl::IsCall      3748235                       # Class of control type instructions committed (Count)
system.cpu.commitStats0.committedControl::IsReturn      3748230                       # Class of control type instructions committed (Count)
system.cpu.exec_context.thread_0.numMatAluAccesses            0                       # Number of matrix alu accesses (Count)
system.cpu.exec_context.thread_0.numCallsReturns      7496465                       # Number of times a function call or return occured (Count)
system.cpu.exec_context.thread_0.numMatInsts            0                       # Number of matrix instructions (Count)
system.cpu.exec_context.thread_0.numIdleCycles     0.002001                       # Number of idle cycles (Cycle)
system.cpu.exec_context.thread_0.numBusyCycles 28511364465.998001                       # Number of busy cycles (Cycle)
system.cpu.exec_context.thread_0.notIdleFraction     1.000000                       # Percentage of non-idle cycles (Ratio)
system.cpu.exec_context.thread_0.idleFraction     0.000000                       # Percentage of idle cycles (Ratio)
system.cpu.executeStats0.numInsts                   0                       # Number of executed instructions (Count)
system.cpu.executeStats0.numNop                     0                       # Number of nop insts executed (Count)
system.cpu.executeStats0.numBranches                0                       # Number of branches executed (Count)
system.cpu.executeStats0.numLoadInsts               0                       # Number of load instructions executed (Count)
system.cpu.executeStats0.numStoreInsts       31929483                       # Number of stores executed (Count)
system.cpu.executeStats0.instRate                   0                       # Inst execution rate ((Count/Cycle))
system.cpu.executeStats0.numFpAluAccesses       253940                       # Number of float alu accesses (Count)
system.cpu.executeStats0.numFpRegReads         237003                       # Number of times the floating registers were read (Count)
system.cpu.executeStats0.numFpRegWrites        189729                       # Number of times the floating registers were written (Count)
system.cpu.executeStats0.numIntAluAccesses     96729092                       # Number of integer alu accesses (Count)
system.cpu.executeStats0.numIntRegReads     142771637                       # Number of times the integer registers were read (Count)
system.cpu.executeStats0.numIntRegWrites     70741999                       # Number of times the integer registers were written (Count)
system.cpu.executeStats0.numMemRefs          31929483                       # Number of memory refs (Count)
system.cpu.executeStats0.numMiscRegReads     47660576                       # Number of times the Misc registers were read (Count)
system.cpu.executeStats0.numVecAluAccesses            0                       # Number of vector alu accesses (Count)
system.cpu.executeStats0.numDiscardedOps            0                       # Number of ops (including micro ops) which were discarded before commit (Count)
system.cpu.fetchStats0.numInsts              51135536                       # Number of instructions fetched (thread level) (Count)
system.cpu.fetchStats0.numOps                97403276                       # Number of ops (including micro ops) fetched (thread level) (Count)
system.cpu.fetchStats0.fetchRate             0.001794                       # Number of inst fetches per cycle ((Count/Cycle))
system.cpu.fetchStats0.numBranches            9719177                       # Number of branches fetched (Count)
system.cpu.fetchStats0.branchRate            0.000341                       # Number of branch fetches per cycle (Ratio)
system.cpu.fetchStats0.numFetchSuspends             0                       # Number of times Execute suspended instruction fetching (Count)
system.cpu.interrupts.clk_domain.clock           8000                       # Clock period in ticks (Tick)
system.cpu.mmu.dtb.rdAccesses                17283577                       # TLB accesses on read requests (Count)
system.cpu.mmu.dtb.wrAccesses                14645965                       # TLB accesses on write requests (Count)
system.cpu.mmu.dtb.rdMisses                     17443                       # TLB misses on read requests (Count)
system.cpu.mmu.dtb.wrMisses                       170                       # TLB misses on write requests (Count)
system.cpu.mmu.dtb.walker.power_state.pwrStateResidencyTicks::UNDEFINED 14255682233000                       # Cumulative time (in ticks) in various power states (Tick)
system.cpu.mmu.itb.rdAccesses                       0                       # TLB accesses on read requests (Count)
system.cpu.mmu.itb.wrAccesses                62538833                       # TLB accesses on write requests (Count)
system.cpu.mmu.itb.rdMisses                         0                       # TLB misses on read requests (Count)
system.cpu.mmu.itb.wrMisses                       124                       # TLB misses on write requests (Count)
system.cpu.mmu.itb.walker.power_state.pwrStateResidencyTicks::UNDEFINED 14255682233000                       # Cumulative time (in ticks) in various power states (Tick)
system.cpu.power_state.pwrStateResidencyTicks::ON 14255682233000                       # Cumulative time (in ticks) in various power states (Tick)
system.cpu.thread_0.numInsts                        0                       # Number of Instructions committed (Count)
system.cpu.thread_0.numOps                          0                       # Number of Ops committed (Count)
system.cpu.thread_0.numMemRefs                      0                       # Number of Memory References (Count)
system.cpu.workload.numSyscalls                    29                       # Number of system calls (Count)
system.cxlswitch.power_state.pwrStateResidencyTicks::UNDEFINED 14255682233000                       # Cumulative time (in ticks) in various power states (Tick)
system.cxlswitch2.power_state.pwrStateResidencyTicks::UNDEFINED 14255682233000                       # Cumulative time (in ticks) in various power states (Tick)
system.journal.power_state.pwrStateResidencyTicks::UNDEFINED 14255682233000                       # Cumulative time (in ticks) in various power states (Tick)
system.mem_ctrl.avgPriority_cpu.inst::samples  62538833.00                       # Average QoS priority value for accepted requests (Count)
system.mem_ctrl.avgPriority_cpu.data::samples  15525354.00                       # Average QoS priority value for accepted requests (Count)
system.mem_ctrl.priorityMinLatency       0.000000018750                       # per QoS priority minimum request to response latency (Second)
system.mem_ctrl.priorityMaxLatency       8.189221892500                       # per QoS priority maximum request to response latency (Second)
system.mem_ctrl.numReadWriteTurnArounds          4841                       # Number of turnarounds from READ to WRITE (Count)
system.mem_ctrl.numWriteReadTurnArounds          4841                       # Number of turnarounds from WRITE to READ (Count)
system.mem_ctrl.numStayReadState            174261698                       # Number of times bus staying in READ state (Count)
system.mem_ctrl.numStayWriteState               82311                       # Number of times bus staying in WRITE state (Count)
system.mem_ctrl.readReqs                     79822409                       # Number of read requests accepted (Count)
system.mem_ctrl.writeReqs                    14645887                       # Number of write requests accepted (Count)
system.mem_ctrl.readBursts                   79822409                       # Number of controller read bursts, including those serviced by the write queue (Count)
system.mem_ctrl.writeBursts                  14645887                       # Number of controller write bursts, including those merged in the write queue (Count)
system.mem_ctrl.servicedByWrQ                 1845310                       # Number of controller read bursts serviced by the write queue (Count)
system.mem_ctrl.mergedWrBursts               14558799                       # Number of controller write bursts merged with an existing one (Count)
system.mem_ctrl.neitherReadNorWriteReqs             0                       # Number of requests that are neither read nor write (Count)
system.mem_ctrl.avgRdQLen                        1.00                       # Average read queue length when enqueuing ((Count/Tick))
system.mem_ctrl.avgWrQLen                       23.87                       # Average write queue length when enqueuing ((Count/Tick))
system.mem_ctrl.numRdRetry                          0                       # Number of times read queue was full causing retry (Count)
system.mem_ctrl.numWrRetry                          0                       # Number of times write queue was full causing retry (Count)
system.mem_ctrl.readPktSize::0                 181084                       # Read request sizes (log2) (Count)
system.mem_ctrl.readPktSize::1                  12695                       # Read request sizes (log2) (Count)
system.mem_ctrl.readPktSize::2                1310242                       # Read request sizes (log2) (Count)
system.mem_ctrl.readPktSize::3               78318388                       # Read request sizes (log2) (Count)
system.mem_ctrl.readPktSize::4                      0                       # Read request sizes (log2) (Count)
system.mem_ctrl.readPktSize::5                      0                       # Read request sizes (log2) (Count)
system.mem_ctrl.readPktSize::6                      0                       # Read request sizes (log2) (Count)
system.mem_ctrl.writePktSize::0                174902                       # Write request sizes (log2) (Count)
system.mem_ctrl.writePktSize::1                    46                       # Write request sizes (log2) (Count)
system.mem_ctrl.writePktSize::2                332115                       # Write request sizes (log2) (Count)
system.mem_ctrl.writePktSize::3              14138824                       # Write request sizes (log2) (Count)
system.mem_ctrl.writePktSize::4                     0                       # Write request sizes (log2) (Count)
system.mem_ctrl.writePktSize::5                     0                       # Write request sizes (log2) (Count)
system.mem_ctrl.writePktSize::6                     0                       # Write request sizes (log2) (Count)
system.mem_ctrl.rdQLenPdf::0                 77977051                       # What read queue length does an incoming req see (Count)
system.mem_ctrl.rdQLenPdf::1                       48                       # What read queue length does an incoming req see (Count)
system.mem_ctrl.rdQLenPdf::2                        0                       # What read queue length does an incoming req see (Count)
system.mem_ctrl.rdQLenPdf::3                        0                       # What read queue length does an incoming req see (Count)
system.mem_ctrl.rdQLenPdf::4                        0                       # What read queue length does an incoming req see (Count)
system.mem_ctrl.rdQLenPdf::5                        0                       # What read queue length does an incoming req see (Count)
system.mem_ctrl.rdQLenPdf::6                        0                       # What read queue length does an incoming req see (Count)
system.mem_ctrl.rdQLenPdf::7                        0                       # What read queue length does an incoming req see (Count)
system.mem_ctrl.rdQLenPdf::8                        0                       # What read queue length does an incoming req see (Count)
system.mem_ctrl.rdQLenPdf::9                        0                       # What read queue length does an incoming req see (Count)
system.mem_ctrl.rdQLenPdf::10                       0                       # What read queue length does an incoming req see (Count)
system.mem_ctrl.rdQLenPdf::11                       0                       # What read queue length does an incoming req see (Count)
system.mem_ctrl.rdQLenPdf::12                       0                       # What read queue length does an incoming req see (Count)
system.mem_ctrl.rdQLenPdf::13                       0                       # What read queue length does an incoming req see (Count)
system.mem_ctrl.rdQLenPdf::14                       0                       # What read queue length does an incoming req see (Count)
system.mem_ctrl.rdQLenPdf::15                       0                       # What read queue length does an incoming req see (Count)
system.mem_ctrl.rdQLenPdf::16                       0                       # What read queue length does an incoming req see (Count)
system.mem_ctrl.rdQLenPdf::17                       0                       # What read queue length does an incoming req see (Count)
system.mem_ctrl.rdQLenPdf::18                       0                       # What read queue length does an incoming req see (Count)
system.mem_ctrl.rdQLenPdf::19                       0                       # What read queue length does an incoming req see (Count)
system.mem_ctrl.rdQLenPdf::20                       0                       # What read queue length does an incoming req see (Count)
system.mem_ctrl.rdQLenPdf::21                       0                       # What read queue length does an incoming req see (Count)
system.mem_ctrl.rdQLenPdf::22                       0                       # What read queue length does an incoming req see (Count)
system.mem_ctrl.rdQLenPdf::23                       0                       # What read queue length does an incoming req see (Count)
system.mem_ctrl.rdQLenPdf::24                       0                       # What read queue length does an incoming req see (Count)
system.mem_ctrl.rdQLenPdf::25                       0                       # What read queue length does an incoming req see (Count)
system.mem_ctrl.rdQLenPdf::26                       0                       # What read queue length does an incoming req see (Count)
system.mem_ctrl.rdQLenPdf::27                       0                       # What read queue length does an incoming req see (Count)
system.mem_ctrl.rdQLenPdf::28                       0                       # What read queue length does an incoming req see (Count)
system.mem_ctrl.rdQLenPdf::29                       0                       # What read queue length does an incoming req see (Count)
system.mem_ctrl.rdQLenPdf::30                       0                       # What read queue length does an incoming req see (Count)
system.mem_ctrl.rdQLenPdf::31                       0                       # What read queue length does an incoming req see (Count)
system.mem_ctrl.wrQLenPdf::0                        1                       # What write queue length does an incoming req see (Count)
system.mem_ctrl.wrQLenPdf::1                        1                       # What write queue length does an incoming req see (Count)
system.mem_ctrl.wrQLenPdf::2                        1                       # What write queue length does an incoming req see (Count)
system.mem_ctrl.wrQLenPdf::3                        1                       # What write queue length does an incoming req see (Count)
system.mem_ctrl.wrQLenPdf::4                        1                       # What write queue length does an incoming req see (Count)
system.mem_ctrl.wrQLenPdf::5                        1                       # What write queue length does an incoming req see (Count)
system.mem_ctrl.wrQLenPdf::6                        1                       # What write queue length does an incoming req see (Count)
system.mem_ctrl.wrQLenPdf::7                        1                       # What write queue length does an incoming req see (Count)
system.mem_ctrl.wrQLenPdf::8                        1                       # What write queue length does an incoming req see (Count)
system.mem_ctrl.wrQLenPdf::9                        1                       # What write queue length does an incoming req see (Count)
system.mem_ctrl.wrQLenPdf::10                       1                       # What write queue length does an incoming req see (Count)
system.mem_ctrl.wrQLenPdf::11                       1                       # What write queue length does an incoming req see (Count)
system.mem_ctrl.wrQLenPdf::12                       1                       # What write queue length does an incoming req see (Count)
system.mem_ctrl.wrQLenPdf::13                       1                       # What write queue length does an incoming req see (Count)
system.mem_ctrl.wrQLenPdf::14                       1                       # What write queue length does an incoming req see (Count)
system.mem_ctrl.wrQLenPdf::15                    4801                       # What write queue length does an incoming req see (Count)
system.mem_ctrl.wrQLenPdf::16                    4805                       # What write queue length does an incoming req see (Count)
system.mem_ctrl.wrQLenPdf::17                    4842                       # What write queue length does an incoming req see (Count)
system.mem_ctrl.wrQLenPdf::18                    4842                       # What write queue length does an incoming req see (Count)
system.mem_ctrl.wrQLenPdf::19                    4842                       # What write queue length does an incoming req see (Count)
system.mem_ctrl.wrQLenPdf::20                    4842                       # What write queue length does an incoming req see (Count)
system.mem_ctrl.wrQLenPdf::21                    4842                       # What write queue length does an incoming req see (Count)
system.mem_ctrl.wrQLenPdf::22                    4842                       # What write queue length does an incoming req see (Count)
system.mem_ctrl.wrQLenPdf::23                    4842                       # What write queue length does an incoming req see (Count)
system.mem_ctrl.wrQLenPdf::24                    4842                       # What write queue length does an incoming req see (Count)
system.mem_ctrl.wrQLenPdf::25                    4842                       # What write queue length does an incoming req see (Count)
system.mem_ctrl.wrQLenPdf::26                    4842                       # What write queue length does an incoming req see (Count)
system.mem_ctrl.wrQLenPdf::27                    4842                       # What write queue length does an incoming req see (Count)
system.mem_ctrl.wrQLenPdf::28                    4841                       # What write queue length does an incoming req see (Count)
system.mem_ctrl.wrQLenPdf::29                    4841                       # What write queue length does an incoming req see (Count)
system.mem_ctrl.wrQLenPdf::30                    4841                       # What write queue length does an incoming req see (Count)
system.mem_ctrl.wrQLenPdf::31                    4841                       # What write queue length does an incoming req see (Count)
system.mem_ctrl.wrQLenPdf::32                    4841                       # What write queue length does an incoming req see (Count)
system.mem_ctrl.wrQLenPdf::33                       0                       # What write queue length does an incoming req see (Count)
system.mem_ctrl.wrQLenPdf::34                       0                       # What write queue length does an incoming req see (Count)
system.mem_ctrl.wrQLenPdf::35                       0                       # What write queue length does an incoming req see (Count)
system.mem_ctrl.wrQLenPdf::36                       0                       # What write queue length does an incoming req see (Count)
system.mem_ctrl.wrQLenPdf::37                       0                       # What write queue length does an incoming req see (Count)
system.mem_ctrl.wrQLenPdf::38                       0                       # What write queue length does an incoming req see (Count)
system.mem_ctrl.wrQLenPdf::39                       0                       # What write queue length does an incoming req see (Count)
system.mem_ctrl.wrQLenPdf::40                       0                       # What write queue length does an incoming req see (Count)
system.mem_ctrl.wrQLenPdf::41                       0                       # What write queue length does an incoming req see (Count)
system.mem_ctrl.wrQLenPdf::42                       0                       # What write queue length does an incoming req see (Count)
system.mem_ctrl.wrQLenPdf::43                       0                       # What write queue length does an incoming req see (Count)
system.mem_ctrl.wrQLenPdf::44                       0                       # What write queue length does an incoming req see (Count)
system.mem_ctrl.wrQLenPdf::45                       0                       # What write queue length does an incoming req see (Count)
system.mem_ctrl.wrQLenPdf::46                       0                       # What write queue length does an incoming req see (Count)
system.mem_ctrl.wrQLenPdf::47                       0                       # What write queue length does an incoming req see (Count)
system.mem_ctrl.wrQLenPdf::48                       0                       # What write queue length does an incoming req see (Count)
system.mem_ctrl.wrQLenPdf::49                       0                       # What write queue length does an incoming req see (Count)
system.mem_ctrl.wrQLenPdf::50                       0                       # What write queue length does an incoming req see (Count)
system.mem_ctrl.wrQLenPdf::51                       0                       # What write queue length does an incoming req see (Count)
system.mem_ctrl.wrQLenPdf::52                       0                       # What write queue length does an incoming req see (Count)
system.mem_ctrl.wrQLenPdf::53                       0                       # What write queue length does an incoming req see (Count)
system.mem_ctrl.wrQLenPdf::54                       0                       # What write queue length does an incoming req see (Count)
system.mem_ctrl.wrQLenPdf::55                       0                       # What write queue length does an incoming req see (Count)
system.mem_ctrl.wrQLenPdf::56                       0                       # What write queue length does an incoming req see (Count)
system.mem_ctrl.wrQLenPdf::57                       0                       # What write queue length does an incoming req see (Count)
system.mem_ctrl.wrQLenPdf::58                       0                       # What write queue length does an incoming req see (Count)
system.mem_ctrl.wrQLenPdf::59                       0                       # What write queue length does an incoming req see (Count)
system.mem_ctrl.wrQLenPdf::60                       0                       # What write queue length does an incoming req see (Count)
system.mem_ctrl.wrQLenPdf::61                       0                       # What write queue length does an incoming req see (Count)
system.mem_ctrl.wrQLenPdf::62                       0                       # What write queue length does an incoming req see (Count)
system.mem_ctrl.wrQLenPdf::63                       0                       # What write queue length does an incoming req see (Count)
system.mem_ctrl.rdPerTurnAround::samples         4841                       # Reads before turning the bus around for writes (Count)
system.mem_ctrl.rdPerTurnAround::mean    15934.284652                       # Reads before turning the bus around for writes (Count)
system.mem_ctrl.rdPerTurnAround::gmean    4700.634527                       # Reads before turning the bus around for writes (Count)
system.mem_ctrl.rdPerTurnAround::stdev   452626.089571                       # Reads before turning the bus around for writes (Count)
system.mem_ctrl.rdPerTurnAround::0-1.04858e+06         4839     99.96%     99.96% # Reads before turning the bus around for writes (Count)
system.mem_ctrl.rdPerTurnAround::2.20201e+07-2.30687e+07            2      0.04%    100.00% # Reads before turning the bus around for writes (Count)
system.mem_ctrl.rdPerTurnAround::total           4841                       # Reads before turning the bus around for writes (Count)
system.mem_ctrl.wrPerTurnAround::samples         4841                       # Writes before turning the bus around for reads (Count)
system.mem_ctrl.wrPerTurnAround::mean       17.983888                       # Writes before turning the bus around for reads (Count)
system.mem_ctrl.wrPerTurnAround::gmean      17.982941                       # Writes before turning the bus around for reads (Count)
system.mem_ctrl.wrPerTurnAround::stdev       0.177647                       # Writes before turning the bus around for reads (Count)
system.mem_ctrl.wrPerTurnAround::16                38      0.78%      0.78% # Writes before turning the bus around for reads (Count)
system.mem_ctrl.wrPerTurnAround::17                 2      0.04%      0.83% # Writes before turning the bus around for reads (Count)
system.mem_ctrl.wrPerTurnAround::18              4801     99.17%    100.00% # Writes before turning the bus around for reads (Count)
system.mem_ctrl.wrPerTurnAround::total           4841                       # Writes before turning the bus around for reads (Count)
system.mem_ctrl.bytesReadWrQ                118099840                       # Total number of bytes read from write queue (Byte)
system.mem_ctrl.bytesReadSys                631994490                       # Total read bytes from the system interface side (Byte)
system.mem_ctrl.bytesWrittenSys             114614038                       # Total written bytes from the system interface side (Byte)
system.mem_ctrl.avgRdBWSys               44332812.67570746                       # Average system read bandwidth in Byte/s ((Byte/Second))
system.mem_ctrl.avgWrBWSys               8039884.45636673                       # Average system write bandwidth in Byte/s ((Byte/Second))
system.mem_ctrl.totGap                   14255682089000                       # Total gap between requests (Tick)
system.mem_ctrl.avgGap                      150904.41                       # Average gap between requests ((Tick/Count))
system.mem_ctrl.requestorReadBytes::cpu.inst    500310664                       # Per-requestor bytes read from memory (Byte)
system.mem_ctrl.requestorReadBytes::cpu.data    117324712                       # Per-requestor bytes read from memory (Byte)
system.mem_ctrl.requestorWriteBytes::cpu.data       607255                       # Per-requestor bytes write to memory (Byte)
system.mem_ctrl.requestorReadRate::cpu.inst 35095525.827718555927                       # Per-requestor bytes read from memory rate ((Byte/Second))
system.mem_ctrl.requestorReadRate::cpu.data 8230031.371519278735                       # Per-requestor bytes read from memory rate ((Byte/Second))
system.mem_ctrl.requestorWriteRate::cpu.data 42597.400115603436                       # Per-requestor bytes write to memory rate ((Byte/Second))
system.mem_ctrl.requestorReadAccesses::cpu.inst     62538833                       # Per-requestor read serviced memory accesses (Count)
system.mem_ctrl.requestorReadAccesses::cpu.data     17283576                       # Per-requestor read serviced memory accesses (Count)
system.mem_ctrl.requestorWriteAccesses::cpu.data     14645887                       # Per-requestor write serviced memory accesses (Count)
system.mem_ctrl.requestorReadTotalLat::cpu.inst 1848454952750                       # Per-requestor read total memory access latency (Tick)
system.mem_ctrl.requestorReadTotalLat::cpu.data 737496059750                       # Per-requestor read total memory access latency (Tick)
system.mem_ctrl.requestorWriteTotalLat::cpu.data 337450694234500                       # Per-requestor write total memory access latency (Tick)
system.mem_ctrl.requestorReadAvgLat::cpu.inst     29556.91                       # Per-requestor read average memory access latency ((Tick/Count))
system.mem_ctrl.requestorReadAvgLat::cpu.data     42670.34                       # Per-requestor read average memory access latency ((Tick/Count))
system.mem_ctrl.requestorWriteAvgLat::cpu.data  23040645.76                       # Per-requestor write average memory access latency ((Tick/Count))
system.mem_ctrl.dram.bytesRead::cpu.inst    500310664                       # Number of bytes read from this memory (Byte)
system.mem_ctrl.dram.bytesRead::cpu.data    131683826                       # Number of bytes read from this memory (Byte)
system.mem_ctrl.dram.bytesRead::total       631994490                       # Number of bytes read from this memory (Byte)
system.mem_ctrl.dram.bytesInstRead::cpu.inst    500310664                       # Number of instructions bytes read from this memory (Byte)
system.mem_ctrl.dram.bytesInstRead::total    500310664                       # Number of instructions bytes read from this memory (Byte)
system.mem_ctrl.dram.bytesWritten::cpu.data    114614038                       # Number of bytes written to this memory (Byte)
system.mem_ctrl.dram.bytesWritten::total    114614038                       # Number of bytes written to this memory (Byte)
system.mem_ctrl.dram.numReads::cpu.inst      62538833                       # Number of read requests responded to by this memory (Count)
system.mem_ctrl.dram.numReads::cpu.data      17283576                       # Number of read requests responded to by this memory (Count)
system.mem_ctrl.dram.numReads::total         79822409                       # Number of read requests responded to by this memory (Count)
system.mem_ctrl.dram.numWrites::cpu.data     14645887                       # Number of write requests responded to by this memory (Count)
system.mem_ctrl.dram.numWrites::total        14645887                       # Number of write requests responded to by this memory (Count)
system.mem_ctrl.dram.bwRead::cpu.inst        35095526                       # Total read bandwidth from this memory ((Byte/Second))
system.mem_ctrl.dram.bwRead::cpu.data         9237287                       # Total read bandwidth from this memory ((Byte/Second))
system.mem_ctrl.dram.bwRead::total           44332813                       # Total read bandwidth from this memory ((Byte/Second))
system.mem_ctrl.dram.bwInstRead::cpu.inst     35095526                       # Instruction read bandwidth from this memory ((Byte/Second))
system.mem_ctrl.dram.bwInstRead::total       35095526                       # Instruction read bandwidth from this memory ((Byte/Second))
system.mem_ctrl.dram.bwWrite::cpu.data        8039884                       # Write bandwidth from this memory ((Byte/Second))
system.mem_ctrl.dram.bwWrite::total           8039884                       # Write bandwidth from this memory ((Byte/Second))
system.mem_ctrl.dram.bwTotal::cpu.inst       35095526                       # Total bandwidth to/from this memory ((Byte/Second))
system.mem_ctrl.dram.bwTotal::cpu.data       17277171                       # Total bandwidth to/from this memory ((Byte/Second))
system.mem_ctrl.dram.bwTotal::total          52372697                       # Total bandwidth to/from this memory ((Byte/Second))
system.mem_ctrl.dram.readBursts              77977099                       # Number of DRAM read bursts (Count)
system.mem_ctrl.dram.writeBursts                87060                       # Number of DRAM write bursts (Count)
system.mem_ctrl.dram.perBankRdBursts::0       2251939                       # Per bank write bursts (Count)
system.mem_ctrl.dram.perBankRdBursts::1         62806                       # Per bank write bursts (Count)
system.mem_ctrl.dram.perBankRdBursts::2      71049119                       # Per bank write bursts (Count)
system.mem_ctrl.dram.perBankRdBursts::3        265779                       # Per bank write bursts (Count)
system.mem_ctrl.dram.perBankRdBursts::4        248311                       # Per bank write bursts (Count)
system.mem_ctrl.dram.perBankRdBursts::5        191958                       # Per bank write bursts (Count)
system.mem_ctrl.dram.perBankRdBursts::6        632844                       # Per bank write bursts (Count)
system.mem_ctrl.dram.perBankRdBursts::7         73515                       # Per bank write bursts (Count)
system.mem_ctrl.dram.perBankRdBursts::8         59622                       # Per bank write bursts (Count)
system.mem_ctrl.dram.perBankRdBursts::9         50949                       # Per bank write bursts (Count)
system.mem_ctrl.dram.perBankRdBursts::10        39460                       # Per bank write bursts (Count)
system.mem_ctrl.dram.perBankRdBursts::11        56074                       # Per bank write bursts (Count)
system.mem_ctrl.dram.perBankRdBursts::12       272096                       # Per bank write bursts (Count)
system.mem_ctrl.dram.perBankRdBursts::13       828185                       # Per bank write bursts (Count)
system.mem_ctrl.dram.perBankRdBursts::14      1270599                       # Per bank write bursts (Count)
system.mem_ctrl.dram.perBankRdBursts::15       623843                       # Per bank write bursts (Count)
system.mem_ctrl.dram.perBankWrBursts::0          1619                       # Per bank write bursts (Count)
system.mem_ctrl.dram.perBankWrBursts::1          1604                       # Per bank write bursts (Count)
system.mem_ctrl.dram.perBankWrBursts::2         42617                       # Per bank write bursts (Count)
system.mem_ctrl.dram.perBankWrBursts::3          1960                       # Per bank write bursts (Count)
system.mem_ctrl.dram.perBankWrBursts::4          4129                       # Per bank write bursts (Count)
system.mem_ctrl.dram.perBankWrBursts::5          4025                       # Per bank write bursts (Count)
system.mem_ctrl.dram.perBankWrBursts::6          3442                       # Per bank write bursts (Count)
system.mem_ctrl.dram.perBankWrBursts::7          3139                       # Per bank write bursts (Count)
system.mem_ctrl.dram.perBankWrBursts::8          2890                       # Per bank write bursts (Count)
system.mem_ctrl.dram.perBankWrBursts::9          2609                       # Per bank write bursts (Count)
system.mem_ctrl.dram.perBankWrBursts::10         2160                       # Per bank write bursts (Count)
system.mem_ctrl.dram.perBankWrBursts::11         1994                       # Per bank write bursts (Count)
system.mem_ctrl.dram.perBankWrBursts::12         7431                       # Per bank write bursts (Count)
system.mem_ctrl.dram.perBankWrBursts::13         1927                       # Per bank write bursts (Count)
system.mem_ctrl.dram.perBankWrBursts::14         1944                       # Per bank write bursts (Count)
system.mem_ctrl.dram.perBankWrBursts::15         3570                       # Per bank write bursts (Count)
system.mem_ctrl.dram.totQLat             1123880406250                       # Total ticks spent queuing (Tick)
system.mem_ctrl.dram.totBusLat           389885495000                       # Total ticks spent in databus transfers (Tick)
system.mem_ctrl.dram.totMemAccLat        2585951012500                       # Total ticks spent from burst creation until serviced by the DRAM (Tick)
system.mem_ctrl.dram.avgQLat                 14412.95                       # Average queueing delay per DRAM burst ((Tick/Count))
system.mem_ctrl.dram.avgBusLat                5000.00                       # Average bus latency per DRAM burst ((Tick/Count))
system.mem_ctrl.dram.avgMemAccLat            33162.95                       # Average memory access latency per DRAM burst ((Tick/Count))
system.mem_ctrl.dram.readRowHits             47374194                       # Number of row buffer hits during reads (Count)
system.mem_ctrl.dram.writeRowHits               60624                       # Number of row buffer hits during writes (Count)
system.mem_ctrl.dram.readRowHitRate             60.75                       # Row buffer hit rate for reads (Ratio)
system.mem_ctrl.dram.writeRowHitRate            69.63                       # Row buffer hit rate for writes (Ratio)
system.mem_ctrl.dram.bytesPerActivate::samples     30629340                       # Bytes accessed per row activation (Byte)
system.mem_ctrl.dram.bytesPerActivate::mean   163.115039                       # Bytes accessed per row activation (Byte)
system.mem_ctrl.dram.bytesPerActivate::gmean   101.491404                       # Bytes accessed per row activation (Byte)
system.mem_ctrl.dram.bytesPerActivate::stdev   221.039473                       # Bytes accessed per row activation (Byte)
system.mem_ctrl.dram.bytesPerActivate::0-127     21792435     71.15%     71.15% # Bytes accessed per row activation (Byte)
system.mem_ctrl.dram.bytesPerActivate::128-255      3616609     11.81%     82.96% # Bytes accessed per row activation (Byte)
system.mem_ctrl.dram.bytesPerActivate::256-383      1485234      4.85%     87.81% # Bytes accessed per row activation (Byte)
system.mem_ctrl.dram.bytesPerActivate::384-511       703517      2.30%     90.10% # Bytes accessed per row activation (Byte)
system.mem_ctrl.dram.bytesPerActivate::512-639       971363      3.17%     93.27% # Bytes accessed per row activation (Byte)
system.mem_ctrl.dram.bytesPerActivate::640-767       653515      2.13%     95.41% # Bytes accessed per row activation (Byte)
system.mem_ctrl.dram.bytesPerActivate::768-895       323257      1.06%     96.46% # Bytes accessed per row activation (Byte)
system.mem_ctrl.dram.bytesPerActivate::896-1023       359210      1.17%     97.64% # Bytes accessed per row activation (Byte)
system.mem_ctrl.dram.bytesPerActivate::1024-1151       724200      2.36%    100.00% # Bytes accessed per row activation (Byte)
system.mem_ctrl.dram.bytesPerActivate::total     30629340                       # Bytes accessed per row activation (Byte)
system.mem_ctrl.dram.dramBytesRead         4990534336                       # Total bytes read (Byte)
system.mem_ctrl.dram.dramBytesWritten         5571840                       # Total bytes written (Byte)
system.mem_ctrl.dram.avgRdBW               350.073343                       # Average DRAM read bandwidth in MiBytes/s ((Byte/Second))
system.mem_ctrl.dram.avgWrBW                 0.390850                       # Average DRAM write bandwidth in MiBytes/s ((Byte/Second))
system.mem_ctrl.dram.peakBW                  12800.00                       # Theoretical peak bandwidth in MiByte/s ((Byte/Second))
system.mem_ctrl.dram.busUtil                     2.74                       # Data bus utilization in percentage (Ratio)
system.mem_ctrl.dram.busUtilRead                 2.73                       # Data bus utilization in percentage for reads (Ratio)
system.mem_ctrl.dram.busUtilWrite                0.00                       # Data bus utilization in percentage for writes (Ratio)
system.mem_ctrl.dram.pageHitRate                60.76                       # Row buffer hit rate, read and write combined (Ratio)
system.mem_ctrl.dram.power_state.pwrStateResidencyTicks::UNDEFINED 14255682233000                       # Cumulative time (in ticks) in various power states (Tick)
system.mem_ctrl.dram.rank0.actEnergy     214647463800                       # Energy for activate commands per rank (pJ) (Joule)
system.mem_ctrl.dram.rank0.preEnergy     114087828855                       # Energy for precharge commands per rank (pJ) (Joule)
system.mem_ctrl.dram.rank0.readEnergy    533902574940                       # Energy for read commands per rank (pJ) (Joule)
system.mem_ctrl.dram.rank0.writeEnergy      326432700                       # Energy for write commands per rank (pJ) (Joule)
system.mem_ctrl.dram.rank0.refreshEnergy 1125331468560.000244                       # Energy for refresh commands per rank (pJ) (Joule)
system.mem_ctrl.dram.rank0.actBackEnergy 6226393895910                       # Energy for active background per rank (pJ) (Joule)
system.mem_ctrl.dram.rank0.preBackEnergy 230902907520                       # Energy for precharge background per rank (pJ) (Joule)
system.mem_ctrl.dram.rank0.actPowerDownEnergy            0                       # Energy for active power-down per rank (pJ) (Joule)
system.mem_ctrl.dram.rank0.prePowerDownEnergy            0                       # Energy for precharge power-down per rank (pJ) (Joule)
system.mem_ctrl.dram.rank0.selfRefreshEnergy            0                       # Energy for self refresh per rank (pJ) (Joule)
system.mem_ctrl.dram.rank0.totalEnergy   8445592572285                       # Total energy per rank (pJ) (Joule)
system.mem_ctrl.dram.rank0.averagePower    592.436927                       # Core power per rank (mW) (Watt)
system.mem_ctrl.dram.rank0.totalIdleTime            0                       # Total Idle time Per DRAM Rank (Tick)
system.mem_ctrl.dram.rank0.pwrStateTime::IDLE 247076376500                       # Time in different power states (Tick)
system.mem_ctrl.dram.rank0.pwrStateTime::REF 476028540000                       # Time in different power states (Tick)
system.mem_ctrl.dram.rank0.pwrStateTime::SREF            0                       # Time in different power states (Tick)
system.mem_ctrl.dram.rank0.pwrStateTime::PRE_PDN            0                       # Time in different power states (Tick)
system.mem_ctrl.dram.rank0.pwrStateTime::ACT 13532577316500                       # Time in different power states (Tick)
system.mem_ctrl.dram.rank0.pwrStateTime::ACT_PDN            0                       # Time in different power states (Tick)
system.mem_ctrl.dram.rank1.actEnergy       4046030940                       # Energy for activate commands per rank (pJ) (Joule)
system.mem_ctrl.dram.rank1.preEnergy       2150516445                       # Energy for precharge commands per rank (pJ) (Joule)
system.mem_ctrl.dram.rank1.readEnergy     22853911920                       # Energy for read commands per rank (pJ) (Joule)
system.mem_ctrl.dram.rank1.writeEnergy      128020500                       # Energy for write commands per rank (pJ) (Joule)
system.mem_ctrl.dram.rank1.refreshEnergy 1125331468560.000244                       # Energy for refresh commands per rank (pJ) (Joule)
system.mem_ctrl.dram.rank1.actBackEnergy 942260544750                       # Energy for active background per rank (pJ) (Joule)
system.mem_ctrl.dram.rank1.preBackEnergy 4680699413760                       # Energy for precharge background per rank (pJ) (Joule)
system.mem_ctrl.dram.rank1.actPowerDownEnergy            0                       # Energy for active power-down per rank (pJ) (Joule)
system.mem_ctrl.dram.rank1.prePowerDownEnergy            0                       # Energy for precharge power-down per rank (pJ) (Joule)
system.mem_ctrl.dram.rank1.selfRefreshEnergy            0                       # Energy for self refresh per rank (pJ) (Joule)
system.mem_ctrl.dram.rank1.totalEnergy   6777469906875                       # Total energy per rank (pJ) (Joule)
system.mem_ctrl.dram.rank1.averagePower    475.422347                       # Core power per rank (mW) (Watt)
system.mem_ctrl.dram.rank1.totalIdleTime            0                       # Total Idle time Per DRAM Rank (Tick)
system.mem_ctrl.dram.rank1.pwrStateTime::IDLE 12158864841500                       # Time in different power states (Tick)
system.mem_ctrl.dram.rank1.pwrStateTime::REF 476028540000                       # Time in different power states (Tick)
system.mem_ctrl.dram.rank1.pwrStateTime::SREF            0                       # Time in different power states (Tick)
system.mem_ctrl.dram.rank1.pwrStateTime::PRE_PDN            0                       # Time in different power states (Tick)
system.mem_ctrl.dram.rank1.pwrStateTime::ACT 1620788851500                       # Time in different power states (Tick)
system.mem_ctrl.dram.rank1.pwrStateTime::ACT_PDN            0                       # Time in different power states (Tick)
system.mem_ctrl.power_state.pwrStateResidencyTicks::UNDEFINED 14255682233000                       # Cumulative time (in ticks) in various power states (Tick)
system.mem_ctrl2.priorityMinLatency      0.000000000000                       # per QoS priority minimum request to response latency (Second)
system.mem_ctrl2.priorityMaxLatency      0.000000000000                       # per QoS priority maximum request to response latency (Second)
system.mem_ctrl2.numReadWriteTurnArounds            0                       # Number of turnarounds from READ to WRITE (Count)
system.mem_ctrl2.numWriteReadTurnArounds            0                       # Number of turnarounds from WRITE to READ (Count)
system.mem_ctrl2.numStayReadState             3661758                       # Number of times bus staying in READ state (Count)
system.mem_ctrl2.numStayWriteState                  0                       # Number of times bus staying in WRITE state (Count)
system.mem_ctrl2.readReqs                           0                       # Number of read requests accepted (Count)
system.mem_ctrl2.writeReqs                          0                       # Number of write requests accepted (Count)
system.mem_ctrl2.readBursts                         0                       # Number of controller read bursts, including those serviced by the write queue (Count)
system.mem_ctrl2.writeBursts                        0                       # Number of controller write bursts, including those merged in the write queue (Count)
system.mem_ctrl2.servicedByWrQ                      0                       # Number of controller read bursts serviced by the write queue (Count)
system.mem_ctrl2.mergedWrBursts                     0                       # Number of controller write bursts merged with an existing one (Count)
system.mem_ctrl2.neitherReadNorWriteReqs            0                       # Number of requests that are neither read nor write (Count)
system.mem_ctrl2.avgRdQLen                       0.00                       # Average read queue length when enqueuing ((Count/Tick))
system.mem_ctrl2.avgWrQLen                       0.00                       # Average write queue length when enqueuing ((Count/Tick))
system.mem_ctrl2.numRdRetry                         0                       # Number of times read queue was full causing retry (Count)
system.mem_ctrl2.numWrRetry                         0                       # Number of times write queue was full causing retry (Count)
system.mem_ctrl2.readPktSize::0                     0                       # Read request sizes (log2) (Count)
system.mem_ctrl2.readPktSize::1                     0                       # Read request sizes (log2) (Count)
system.mem_ctrl2.readPktSize::2                     0                       # Read request sizes (log2) (Count)
system.mem_ctrl2.readPktSize::3                     0                       # Read request sizes (log2) (Count)
system.mem_ctrl2.readPktSize::4                     0                       # Read request sizes (log2) (Count)
system.mem_ctrl2.readPktSize::5                     0                       # Read request sizes (log2) (Count)
system.mem_ctrl2.readPktSize::6                     0                       # Read request sizes (log2) (Count)
system.mem_ctrl2.writePktSize::0                    0                       # Write request sizes (log2) (Count)
system.mem_ctrl2.writePktSize::1                    0                       # Write request sizes (log2) (Count)
system.mem_ctrl2.writePktSize::2                    0                       # Write request sizes (log2) (Count)
system.mem_ctrl2.writePktSize::3                    0                       # Write request sizes (log2) (Count)
system.mem_ctrl2.writePktSize::4                    0                       # Write request sizes (log2) (Count)
system.mem_ctrl2.writePktSize::5                    0                       # Write request sizes (log2) (Count)
system.mem_ctrl2.writePktSize::6                    0                       # Write request sizes (log2) (Count)
system.mem_ctrl2.rdQLenPdf::0                       0                       # What read queue length does an incoming req see (Count)
system.mem_ctrl2.rdQLenPdf::1                       0                       # What read queue length does an incoming req see (Count)
system.mem_ctrl2.rdQLenPdf::2                       0                       # What read queue length does an incoming req see (Count)
system.mem_ctrl2.rdQLenPdf::3                       0                       # What read queue length does an incoming req see (Count)
system.mem_ctrl2.rdQLenPdf::4                       0                       # What read queue length does an incoming req see (Count)
system.mem_ctrl2.rdQLenPdf::5                       0                       # What read queue length does an incoming req see (Count)
system.mem_ctrl2.rdQLenPdf::6                       0                       # What read queue length does an incoming req see (Count)
system.mem_ctrl2.rdQLenPdf::7                       0                       # What read queue length does an incoming req see (Count)
system.mem_ctrl2.rdQLenPdf::8                       0                       # What read queue length does an incoming req see (Count)
system.mem_ctrl2.rdQLenPdf::9                       0                       # What read queue length does an incoming req see (Count)
system.mem_ctrl2.rdQLenPdf::10                      0                       # What read queue length does an incoming req see (Count)
system.mem_ctrl2.rdQLenPdf::11                      0                       # What read queue length does an incoming req see (Count)
system.mem_ctrl2.rdQLenPdf::12                      0                       # What read queue length does an incoming req see (Count)
system.mem_ctrl2.rdQLenPdf::13                      0                       # What read queue length does an incoming req see (Count)
system.mem_ctrl2.rdQLenPdf::14                      0                       # What read queue length does an incoming req see (Count)
system.mem_ctrl2.rdQLenPdf::15                      0                       # What read queue length does an incoming req see (Count)
system.mem_ctrl2.rdQLenPdf::16                      0                       # What read queue length does an incoming req see (Count)
system.mem_ctrl2.rdQLenPdf::17                      0                       # What read queue length does an incoming req see (Count)
system.mem_ctrl2.rdQLenPdf::18                      0                       # What read queue length does an incoming req see (Count)
system.mem_ctrl2.rdQLenPdf::19                      0                       # What read queue length does an incoming req see (Count)
system.mem_ctrl2.rdQLenPdf::20                      0                       # What read queue length does an incoming req see (Count)
system.mem_ctrl2.rdQLenPdf::21                      0                       # What read queue length does an incoming req see (Count)
system.mem_ctrl2.rdQLenPdf::22                      0                       # What read queue length does an incoming req see (Count)
system.mem_ctrl2.rdQLenPdf::23                      0                       # What read queue length does an incoming req see (Count)
system.mem_ctrl2.rdQLenPdf::24                      0                       # What read queue length does an incoming req see (Count)
system.mem_ctrl2.rdQLenPdf::25                      0                       # What read queue length does an incoming req see (Count)
system.mem_ctrl2.rdQLenPdf::26                      0                       # What read queue length does an incoming req see (Count)
system.mem_ctrl2.rdQLenPdf::27                      0                       # What read queue length does an incoming req see (Count)
system.mem_ctrl2.rdQLenPdf::28                      0                       # What read queue length does an incoming req see (Count)
system.mem_ctrl2.rdQLenPdf::29                      0                       # What read queue length does an incoming req see (Count)
system.mem_ctrl2.rdQLenPdf::30                      0                       # What read queue length does an incoming req see (Count)
system.mem_ctrl2.rdQLenPdf::31                      0                       # What read queue length does an incoming req see (Count)
system.mem_ctrl2.wrQLenPdf::0                       0                       # What write queue length does an incoming req see (Count)
system.mem_ctrl2.wrQLenPdf::1                       0                       # What write queue length does an incoming req see (Count)
system.mem_ctrl2.wrQLenPdf::2                       0                       # What write queue length does an incoming req see (Count)
system.mem_ctrl2.wrQLenPdf::3                       0                       # What write queue length does an incoming req see (Count)
system.mem_ctrl2.wrQLenPdf::4                       0                       # What write queue length does an incoming req see (Count)
system.mem_ctrl2.wrQLenPdf::5                       0                       # What write queue length does an incoming req see (Count)
system.mem_ctrl2.wrQLenPdf::6                       0                       # What write queue length does an incoming req see (Count)
system.mem_ctrl2.wrQLenPdf::7                       0                       # What write queue length does an incoming req see (Count)
system.mem_ctrl2.wrQLenPdf::8                       0                       # What write queue length does an incoming req see (Count)
system.mem_ctrl2.wrQLenPdf::9                       0                       # What write queue length does an incoming req see (Count)
system.mem_ctrl2.wrQLenPdf::10                      0                       # What write queue length does an incoming req see (Count)
system.mem_ctrl2.wrQLenPdf::11                      0                       # What write queue length does an incoming req see (Count)
system.mem_ctrl2.wrQLenPdf::12                      0                       # What write queue length does an incoming req see (Count)
system.mem_ctrl2.wrQLenPdf::13                      0                       # What write queue length does an incoming req see (Count)
system.mem_ctrl2.wrQLenPdf::14                      0                       # What write queue length does an incoming req see (Count)
system.mem_ctrl2.wrQLenPdf::15                      0                       # What write queue length does an incoming req see (Count)
system.mem_ctrl2.wrQLenPdf::16                      0                       # What write queue length does an incoming req see (Count)
system.mem_ctrl2.wrQLenPdf::17                      0                       # What write queue length does an incoming req see (Count)
system.mem_ctrl2.wrQLenPdf::18                      0                       # What write queue length does an incoming req see (Count)
system.mem_ctrl2.wrQLenPdf::19                      0                       # What write queue length does an incoming req see (Count)
system.mem_ctrl2.wrQLenPdf::20                      0                       # What write queue length does an incoming req see (Count)
system.mem_ctrl2.wrQLenPdf::21                      0                       # What write queue length does an incoming req see (Count)
system.mem_ctrl2.wrQLenPdf::22                      0                       # What write queue length does an incoming req see (Count)
system.mem_ctrl2.wrQLenPdf::23                      0                       # What write queue length does an incoming req see (Count)
system.mem_ctrl2.wrQLenPdf::24                      0                       # What write queue length does an incoming req see (Count)
system.mem_ctrl2.wrQLenPdf::25                      0                       # What write queue length does an incoming req see (Count)
system.mem_ctrl2.wrQLenPdf::26                      0                       # What write queue length does an incoming req see (Count)
system.mem_ctrl2.wrQLenPdf::27                      0                       # What write queue length does an incoming req see (Count)
system.mem_ctrl2.wrQLenPdf::28                      0                       # What write queue length does an incoming req see (Count)
system.mem_ctrl2.wrQLenPdf::29                      0                       # What write queue length does an incoming req see (Count)
system.mem_ctrl2.wrQLenPdf::30                      0                       # What write queue length does an incoming req see (Count)
system.mem_ctrl2.wrQLenPdf::31                      0                       # What write queue length does an incoming req see (Count)
system.mem_ctrl2.wrQLenPdf::32                      0                       # What write queue length does an incoming req see (Count)
system.mem_ctrl2.wrQLenPdf::33                      0                       # What write queue length does an incoming req see (Count)
system.mem_ctrl2.wrQLenPdf::34                      0                       # What write queue length does an incoming req see (Count)
system.mem_ctrl2.wrQLenPdf::35                      0                       # What write queue length does an incoming req see (Count)
system.mem_ctrl2.wrQLenPdf::36                      0                       # What write queue length does an incoming req see (Count)
system.mem_ctrl2.wrQLenPdf::37                      0                       # What write queue length does an incoming req see (Count)
system.mem_ctrl2.wrQLenPdf::38                      0                       # What write queue length does an incoming req see (Count)
system.mem_ctrl2.wrQLenPdf::39                      0                       # What write queue length does an incoming req see (Count)
system.mem_ctrl2.wrQLenPdf::40                      0                       # What write queue length does an incoming req see (Count)
system.mem_ctrl2.wrQLenPdf::41                      0                       # What write queue length does an incoming req see (Count)
system.mem_ctrl2.wrQLenPdf::42                      0                       # What write queue length does an incoming req see (Count)
system.mem_ctrl2.wrQLenPdf::43                      0                       # What write queue length does an incoming req see (Count)
system.mem_ctrl2.wrQLenPdf::44                      0                       # What write queue length does an incoming req see (Count)
system.mem_ctrl2.wrQLenPdf::45                      0                       # What write queue length does an incoming req see (Count)
system.mem_ctrl2.wrQLenPdf::46                      0                       # What write queue length does an incoming req see (Count)
system.mem_ctrl2.wrQLenPdf::47                      0                       # What write queue length does an incoming req see (Count)
system.mem_ctrl2.wrQLenPdf::48                      0                       # What write queue length does an incoming req see (Count)
system.mem_ctrl2.wrQLenPdf::49                      0                       # What write queue length does an incoming req see (Count)
system.mem_ctrl2.wrQLenPdf::50                      0                       # What write queue length does an incoming req see (Count)
system.mem_ctrl2.wrQLenPdf::51                      0                       # What write queue length does an incoming req see (Count)
system.mem_ctrl2.wrQLenPdf::52                      0                       # What write queue length does an incoming req see (Count)
system.mem_ctrl2.wrQLenPdf::53                      0                       # What write queue length does an incoming req see (Count)
system.mem_ctrl2.wrQLenPdf::54                      0                       # What write queue length does an incoming req see (Count)
system.mem_ctrl2.wrQLenPdf::55                      0                       # What write queue length does an incoming req see (Count)
system.mem_ctrl2.wrQLenPdf::56                      0                       # What write queue length does an incoming req see (Count)
system.mem_ctrl2.wrQLenPdf::57                      0                       # What write queue length does an incoming req see (Count)
system.mem_ctrl2.wrQLenPdf::58                      0                       # What write queue length does an incoming req see (Count)
system.mem_ctrl2.wrQLenPdf::59                      0                       # What write queue length does an incoming req see (Count)
system.mem_ctrl2.wrQLenPdf::60                      0                       # What write queue length does an incoming req see (Count)
system.mem_ctrl2.wrQLenPdf::61                      0                       # What write queue length does an incoming req see (Count)
system.mem_ctrl2.wrQLenPdf::62                      0                       # What write queue length does an incoming req see (Count)
system.mem_ctrl2.wrQLenPdf::63                      0                       # What write queue length does an incoming req see (Count)
system.mem_ctrl2.bytesReadWrQ                       0                       # Total number of bytes read from write queue (Byte)
system.mem_ctrl2.bytesReadSys                       0                       # Total read bytes from the system interface side (Byte)
system.mem_ctrl2.bytesWrittenSys                    0                       # Total written bytes from the system interface side (Byte)
system.mem_ctrl2.avgRdBWSys                0.00000000                       # Average system read bandwidth in Byte/s ((Byte/Second))
system.mem_ctrl2.avgWrBWSys                0.00000000                       # Average system write bandwidth in Byte/s ((Byte/Second))
system.mem_ctrl2.totGap                             0                       # Total gap between requests (Tick)
system.mem_ctrl2.avgGap                           nan                       # Average gap between requests ((Tick/Count))
system.mem_ctrl2.dram.readBursts                    0                       # Number of DRAM read bursts (Count)
system.mem_ctrl2.dram.writeBursts                   0                       # Number of DRAM write bursts (Count)
system.mem_ctrl2.dram.perBankRdBursts::0            0                       # Per bank write bursts (Count)
system.mem_ctrl2.dram.perBankRdBursts::1            0                       # Per bank write bursts (Count)
system.mem_ctrl2.dram.perBankRdBursts::2            0                       # Per bank write bursts (Count)
system.mem_ctrl2.dram.perBankRdBursts::3            0                       # Per bank write bursts (Count)
system.mem_ctrl2.dram.perBankRdBursts::4            0                       # Per bank write bursts (Count)
system.mem_ctrl2.dram.perBankRdBursts::5            0                       # Per bank write bursts (Count)
system.mem_ctrl2.dram.perBankRdBursts::6            0                       # Per bank write bursts (Count)
system.mem_ctrl2.dram.perBankRdBursts::7            0                       # Per bank write bursts (Count)
system.mem_ctrl2.dram.perBankRdBursts::8            0                       # Per bank write bursts (Count)
system.mem_ctrl2.dram.perBankRdBursts::9            0                       # Per bank write bursts (Count)
system.mem_ctrl2.dram.perBankRdBursts::10            0                       # Per bank write bursts (Count)
system.mem_ctrl2.dram.perBankRdBursts::11            0                       # Per bank write bursts (Count)
system.mem_ctrl2.dram.perBankRdBursts::12            0                       # Per bank write bursts (Count)
system.mem_ctrl2.dram.perBankRdBursts::13            0                       # Per bank write bursts (Count)
system.mem_ctrl2.dram.perBankRdBursts::14            0                       # Per bank write bursts (Count)
system.mem_ctrl2.dram.perBankRdBursts::15            0                       # Per bank write bursts (Count)
system.mem_ctrl2.dram.perBankWrBursts::0            0                       # Per bank write bursts (Count)
system.mem_ctrl2.dram.perBankWrBursts::1            0                       # Per bank write bursts (Count)
system.mem_ctrl2.dram.perBankWrBursts::2            0                       # Per bank write bursts (Count)
system.mem_ctrl2.dram.perBankWrBursts::3            0                       # Per bank write bursts (Count)
system.mem_ctrl2.dram.perBankWrBursts::4            0                       # Per bank write bursts (Count)
system.mem_ctrl2.dram.perBankWrBursts::5            0                       # Per bank write bursts (Count)
system.mem_ctrl2.dram.perBankWrBursts::6            0                       # Per bank write bursts (Count)
system.mem_ctrl2.dram.perBankWrBursts::7            0                       # Per bank write bursts (Count)
[...]
system.mem_ctrl3.wrQLenPdf::50                      0                       # What write queue length does an incoming req see (Count)
system.mem_ctrl3.wrQLenPdf::51                      0                       # What write queue length does an incoming req see (Count)
system.mem_ctrl3.wrQLenPdf::52                      0                       # What write queue length does an incoming req see (Count)
system.mem_ctrl3.wrQLenPdf::53                      0                       # What write queue length does an incoming req see (Count)
system.mem_ctrl3.wrQLenPdf::54                      0                       # What write queue length does an incoming req see (Count)
system.mem_ctrl3.wrQLenPdf::55                      0                       # What write queue length does an incoming req see (Count)
system.mem_ctrl3.wrQLenPdf::56                      0                       # What write queue length does an incoming req see (Count)
system.mem_ctrl3.wrQLenPdf::57                      0                       # What write queue length does an incoming req see (Count)
system.mem_ctrl3.wrQLenPdf::58                      0                       # What write queue length does an incoming req see (Count)
system.mem_ctrl3.wrQLenPdf::59                      0                       # What write queue length does an incoming req see (Count)
system.mem_ctrl3.wrQLenPdf::60                      0                       # What write queue length does an incoming req see (Count)
system.mem_ctrl3.wrQLenPdf::61                      0                       # What write queue length does an incoming req see (Count)
system.mem_ctrl3.wrQLenPdf::62                      0                       # What write queue length does an incoming req see (Count)
system.mem_ctrl3.wrQLenPdf::63                      0                       # What write queue length does an incoming req see (Count)
system.mem_ctrl3.bytesReadWrQ                       0                       # Total number of bytes read from write queue (Byte)
system.mem_ctrl3.bytesReadSys                       0                       # Total read bytes from the system interface side (Byte)
system.mem_ctrl3.bytesWrittenSys                    0                       # Total written bytes from the system interface side (Byte)
system.mem_ctrl3.avgRdBWSys                0.00000000                       # Average system read bandwidth in Byte/s ((Byte/Second))
system.mem_ctrl3.avgWrBWSys                0.00000000                       # Average system write bandwidth in Byte/s ((Byte/Second))
system.mem_ctrl3.totGap                             0                       # Total gap between requests (Tick)
system.mem_ctrl3.avgGap                           nan                       # Average gap between requests ((Tick/Count))
system.mem_ctrl3.dram.readBursts                    0                       # Number of DRAM read bursts (Count)
system.mem_ctrl3.dram.writeBursts                   0                       # Number of DRAM write bursts (Count)
system.mem_ctrl3.dram.perBankRdBursts::0            0                       # Per bank write bursts (Count)
system.mem_ctrl3.dram.perBankRdBursts::1            0                       # Per bank write bursts (Count)
system.mem_ctrl3.dram.perBankRdBursts::2            0                       # Per bank write bursts (Count)
system.mem_ctrl3.dram.perBankRdBursts::3            0                       # Per bank write bursts (Count)
system.mem_ctrl3.dram.perBankRdBursts::4            0                       # Per bank write bursts (Count)
system.mem_ctrl3.dram.perBankRdBursts::5            0                       # Per bank write bursts (Count)
system.mem_ctrl3.dram.perBankRdBursts::6            0                       # Per bank write bursts (Count)
system.mem_ctrl3.dram.perBankRdBursts::7            0                       # Per bank write bursts (Count)
system.mem_ctrl3.dram.perBankRdBursts::8            0                       # Per bank write bursts (Count)
system.mem_ctrl3.dram.perBankRdBursts::9            0                       # Per bank write bursts (Count)
system.mem_ctrl3.dram.perBankRdBursts::10            0                       # Per bank write bursts (Count)
system.mem_ctrl3.dram.perBankRdBursts::11            0                       # Per bank write bursts (Count)
system.mem_ctrl3.dram.perBankRdBursts::12            0                       # Per bank write bursts (Count)
system.mem_ctrl3.dram.perBankRdBursts::13            0                       # Per bank write bursts (Count)
system.mem_ctrl3.dram.perBankRdBursts::14            0                       # Per bank write bursts (Count)
system.mem_ctrl3.dram.perBankRdBursts::15            0                       # Per bank write bursts (Count)
system.mem_ctrl3.dram.perBankWrBursts::0            0                       # Per bank write bursts (Count)
system.mem_ctrl3.dram.perBankWrBursts::1            0                       # Per bank write bursts (Count)
system.mem_ctrl3.dram.perBankWrBursts::2            0                       # Per bank write bursts (Count)
system.mem_ctrl3.dram.perBankWrBursts::3            0                       # Per bank write bursts (Count)
system.mem_ctrl3.dram.perBankWrBursts::4            0                       # Per bank write bursts (Count)
system.mem_ctrl3.dram.perBankWrBursts::5            0                       # Per bank write bursts (Count)
system.mem_ctrl3.dram.perBankWrBursts::6            0                       # Per bank write bursts (Count)
system.mem_ctrl3.dram.perBankWrBursts::7            0                       # Per bank write bursts (Count)
system.mem_ctrl3.dram.perBankWrBursts::8            0                       # Per bank write bursts (Count)
system.mem_ctrl3.dram.perBankWrBursts::9            0                       # Per bank write bursts (Count)
system.mem_ctrl3.dram.perBankWrBursts::10            0                       # Per bank write bursts (Count)
system.mem_ctrl3.dram.perBankWrBursts::11            0                       # Per bank write bursts (Count)
system.mem_ctrl3.dram.perBankWrBursts::12            0                       # Per bank write bursts (Count)
system.mem_ctrl3.dram.perBankWrBursts::13            0                       # Per bank write bursts (Count)
system.mem_ctrl3.dram.perBankWrBursts::14            0                       # Per bank write bursts (Count)
system.mem_ctrl3.dram.perBankWrBursts::15            0                       # Per bank write bursts (Count)
system.mem_ctrl3.dram.totQLat                       0                       # Total ticks spent queuing (Tick)
system.mem_ctrl3.dram.totBusLat                     0                       # Total ticks spent in databus transfers (Tick)
system.mem_ctrl3.dram.totMemAccLat                  0                       # Total ticks spent from burst creation until serviced by the DRAM (Tick)
system.mem_ctrl3.dram.avgQLat                     nan                       # Average queueing delay per DRAM burst ((Tick/Count))
system.mem_ctrl3.dram.avgBusLat                   nan                       # Average bus latency per DRAM burst ((Tick/Count))
system.mem_ctrl3.dram.avgMemAccLat                nan                       # Average memory access latency per DRAM burst ((Tick/Count))
system.mem_ctrl3.dram.readRowHits                   0                       # Number of row buffer hits during reads (Count)
system.mem_ctrl3.dram.writeRowHits                  0                       # Number of row buffer hits during writes (Count)
system.mem_ctrl3.dram.readRowHitRate              nan                       # Row buffer hit rate for reads (Ratio)
system.mem_ctrl3.dram.writeRowHitRate             nan                       # Row buffer hit rate for writes (Ratio)
system.mem_ctrl3.dram.dramBytesRead                 0                       # Total bytes read (Byte)
system.mem_ctrl3.dram.dramBytesWritten              0                       # Total bytes written (Byte)
system.mem_ctrl3.dram.avgRdBW                       0                       # Average DRAM read bandwidth in MiBytes/s ((Byte/Second))
system.mem_ctrl3.dram.avgWrBW                       0                       # Average DRAM write bandwidth in MiBytes/s ((Byte/Second))
system.mem_ctrl3.dram.peakBW                 12800.00                       # Theoretical peak bandwidth in MiByte/s ((Byte/Second))
system.mem_ctrl3.dram.busUtil                    0.00                       # Data bus utilization in percentage (Ratio)
system.mem_ctrl3.dram.busUtilRead                0.00                       # Data bus utilization in percentage for reads (Ratio)
system.mem_ctrl3.dram.busUtilWrite               0.00                       # Data bus utilization in percentage for writes (Ratio)
system.mem_ctrl3.dram.pageHitRate                 nan                       # Row buffer hit rate, read and write combined (Ratio)
system.mem_ctrl3.dram.power_state.pwrStateResidencyTicks::UNDEFINED 14255682233000                       # Cumulative time (in ticks) in various power states (Tick)
system.mem_ctrl3.dram.rank0.actEnergy               0                       # Energy for activate commands per rank (pJ) (Joule)
system.mem_ctrl3.dram.rank0.preEnergy               0                       # Energy for precharge commands per rank (pJ) (Joule)
system.mem_ctrl3.dram.rank0.readEnergy              0                       # Energy for read commands per rank (pJ) (Joule)
system.mem_ctrl3.dram.rank0.writeEnergy             0                       # Energy for write commands per rank (pJ) (Joule)
system.mem_ctrl3.dram.rank0.refreshEnergy 1125331468560.000244                       # Energy for refresh commands per rank (pJ) (Joule)
system.mem_ctrl3.dram.rank0.actBackEnergy 205589402910                       # Energy for active background per rank (pJ) (Joule)
system.mem_ctrl3.dram.rank0.preBackEnergy 5301054059520                       # Energy for precharge background per rank (pJ) (Joule)
system.mem_ctrl3.dram.rank0.actPowerDownEnergy            0                       # Energy for active power-down per rank (pJ) (Joule)
system.mem_ctrl3.dram.rank0.prePowerDownEnergy            0                       # Energy for precharge power-down per rank (pJ) (Joule)
system.mem_ctrl3.dram.rank0.selfRefreshEnergy            0                       # Energy for self refresh per rank (pJ) (Joule)
system.mem_ctrl3.dram.rank0.totalEnergy  6631974930990                       # Total energy per rank (pJ) (Joule)
system.mem_ctrl3.dram.rank0.averagePower   465.216243                       # Core power per rank (mW) (Watt)
system.mem_ctrl3.dram.rank0.totalIdleTime            0                       # Total Idle time Per DRAM Rank (Tick)
system.mem_ctrl3.dram.rank0.pwrStateTime::IDLE 13779653693000                       # Time in different power states (Tick)
system.mem_ctrl3.dram.rank0.pwrStateTime::REF 476028540000                       # Time in different power states (Tick)
system.mem_ctrl3.dram.rank0.pwrStateTime::SREF            0                       # Time in different power states (Tick)
system.mem_ctrl3.dram.rank0.pwrStateTime::PRE_PDN            0                       # Time in different power states (Tick)
system.mem_ctrl3.dram.rank0.pwrStateTime::ACT            0                       # Time in different power states (Tick)
system.mem_ctrl3.dram.rank0.pwrStateTime::ACT_PDN            0                       # Time in different power states (Tick)
system.mem_ctrl3.dram.rank1.actEnergy               0                       # Energy for activate commands per rank (pJ) (Joule)
system.mem_ctrl3.dram.rank1.preEnergy               0                       # Energy for precharge commands per rank (pJ) (Joule)
system.mem_ctrl3.dram.rank1.readEnergy              0                       # Energy for read commands per rank (pJ) (Joule)
system.mem_ctrl3.dram.rank1.writeEnergy             0                       # Energy for write commands per rank (pJ) (Joule)
system.mem_ctrl3.dram.rank1.refreshEnergy 1125331468560.000244                       # Energy for refresh commands per rank (pJ) (Joule)
system.mem_ctrl3.dram.rank1.actBackEnergy 205589402910                       # Energy for active background per rank (pJ) (Joule)
system.mem_ctrl3.dram.rank1.preBackEnergy 5301054059520                       # Energy for precharge background per rank (pJ) (Joule)
system.mem_ctrl3.dram.rank1.actPowerDownEnergy            0                       # Energy for active power-down per rank (pJ) (Joule)
system.mem_ctrl3.dram.rank1.prePowerDownEnergy            0                       # Energy for precharge power-down per rank (pJ) (Joule)
system.mem_ctrl3.dram.rank1.selfRefreshEnergy            0                       # Energy for self refresh per rank (pJ) (Joule)
system.mem_ctrl3.dram.rank1.totalEnergy  6631974930990                       # Total energy per rank (pJ) (Joule)
system.mem_ctrl3.dram.rank1.averagePower   465.216243                       # Core power per rank (mW) (Watt)
system.mem_ctrl3.dram.rank1.totalIdleTime            0                       # Total Idle time Per DRAM Rank (Tick)
system.mem_ctrl3.dram.rank1.pwrStateTime::IDLE 13779653693000                       # Time in different power states (Tick)
system.mem_ctrl3.dram.rank1.pwrStateTime::REF 476028540000                       # Time in different power states (Tick)
system.mem_ctrl3.dram.rank1.pwrStateTime::SREF            0                       # Time in different power states (Tick)
system.mem_ctrl3.dram.rank1.pwrStateTime::PRE_PDN            0                       # Time in different power states (Tick)
system.mem_ctrl3.dram.rank1.pwrStateTime::ACT            0                       # Time in different power states (Tick)
system.mem_ctrl3.dram.rank1.pwrStateTime::ACT_PDN            0                       # Time in different power states (Tick)
system.mem_ctrl3.power_state.pwrStateResidencyTicks::UNDEFINED 14255682233000                       # Cumulative time (in ticks) in various power states (Tick)
system.membus.transDist::ReadReq             79762323                       # Transaction distribution (Count)
system.membus.transDist::ReadResp            79762323                       # Transaction distribution (Count)
system.membus.transDist::WriteReq            14585801                       # Transaction distribution (Count)
system.membus.transDist::WriteResp           14585801                       # Transaction distribution (Count)
system.membus.transDist::LockedRMWReadReq        60086                       # Transaction distribution (Count)
system.membus.transDist::LockedRMWReadResp        60086                       # Transaction distribution (Count)
system.membus.transDist::LockedRMWWriteReq        60086                       # Transaction distribution (Count)
system.membus.transDist::LockedRMWWriteResp        60086                       # Transaction distribution (Count)
system.membus.pktCount_system.cpu.icache_port::system.journal.cpu_side_port    125077666                       # Packet count per connected requestor and responder (Count)
system.membus.pktCount_system.cpu.icache_port::total    125077666                       # Packet count per connected requestor and responder (Count)
system.membus.pktCount_system.cpu.dcache_port::system.journal.cpu_side_port     63858926                       # Packet count per connected requestor and responder (Count)
system.membus.pktCount_system.cpu.dcache_port::total     63858926                       # Packet count per connected requestor and responder (Count)
system.membus.pktCount::total               188936592                       # Packet count per connected requestor and responder (Count)
system.membus.pktSize_system.cpu.icache_port::system.journal.cpu_side_port    500310664                       # Cumulative packet size per connected requestor and responder (Byte)
system.membus.pktSize_system.cpu.icache_port::total    500310664                       # Cumulative packet size per connected requestor and responder (Byte)
system.membus.pktSize_system.cpu.dcache_port::system.journal.cpu_side_port    246297864                       # Cumulative packet size per connected requestor and responder (Byte)
system.membus.pktSize_system.cpu.dcache_port::total    246297864                       # Cumulative packet size per connected requestor and responder (Byte)
system.membus.pktSize::total                746608528                       # Cumulative packet size per connected requestor and responder (Byte)
system.membus.snoops                                0                       # Total snoops (Count)
system.membus.snoopTraffic                          0                       # Total snoop traffic (Byte)
system.membus.snoopFanout::samples           94468296                       # Request fanout histogram (Count)
system.membus.snoopFanout::mean                     0                       # Request fanout histogram (Count)
system.membus.snoopFanout::stdev                    0                       # Request fanout histogram (Count)
system.membus.snoopFanout::underflows               0      0.00%      0.00% # Request fanout histogram (Count)
system.membus.snoopFanout::0                 94468296    100.00%    100.00% # Request fanout histogram (Count)
system.membus.snoopFanout::1                        0      0.00%    100.00% # Request fanout histogram (Count)
system.membus.snoopFanout::overflows                0      0.00%    100.00% # Request fanout histogram (Count)
system.membus.snoopFanout::min_value                0                       # Request fanout histogram (Count)
system.membus.snoopFanout::max_value                0                       # Request fanout histogram (Count)
system.membus.snoopFanout::total             94468296                       # Request fanout histogram (Count)
system.membus.power_state.pwrStateResidencyTicks::UNDEFINED 14255682233000                       # Cumulative time (in ticks) in various power states (Tick)
system.membus.reqLayer2.occupancy         54557091500                       # Layer occupancy (ticks) (Tick)
system.membus.reqLayer2.utilization               0.0                       # Layer utilization (Ratio)
system.membus.respLayer0.occupancy        77777001250                       # Layer occupancy (ticks) (Tick)
system.membus.respLayer0.utilization              0.0                       # Layer utilization (Ratio)
system.membus.respLayer1.occupancy        28160191250                       # Layer occupancy (ticks) (Tick)
system.membus.respLayer1.utilization              0.0                       # Layer utilization (Ratio)
system.membus.snoop_filter.totRequests              0                       # Total number of requests made to the snoop filter. (Count)
system.membus.snoop_filter.hitSingleRequests            0                       # Number of requests hitting in the snoop filter with a single holder of the requested data. (Count)
system.membus.snoop_filter.hitMultiRequests            0                       # Number of requests hitting in the snoop filter with multiple (>1) holders of the requested data. (Count)
system.membus.snoop_filter.totSnoops                0                       # Total number of snoops made to the snoop filter. (Count)
system.membus.snoop_filter.hitSingleSnoops            0                       # Number of snoops hitting in the snoop filter with a single holder of the requested data. (Count)
system.membus.snoop_filter.hitMultiSnoops            0                       # Number of snoops hitting in the snoop filter with multiple (>1) holders of the requested data. (Count)
system.workload.inst.arm                            0                       # number of arm instructions executed (Count)
system.workload.inst.quiesce                        0                       # number of quiesce instructions executed (Count)

---------- End Simulation Statistics   ----------
