
---------- Begin Simulation Statistics ----------
simSeconds                                  28.455503                       # Number of seconds simulated (Second)
simTicks                                 28455503244000                       # Number of ticks simulated (Tick)
finalTick                                28455503244000                       # Number of ticks from beginning of simulation (restored from checkpoints and never reset) (Tick)
simFreq                                  1000000000000                       # The number of ticks per simulated second ((Tick/Second))
hostSeconds                                    364.69                       # Real time elapsed on the host (Second)
hostTickRate                              78026081721                       # The number of ticks simulated per host second (ticks/s) ((Tick/Second))
hostMemory                                     948156                       # Number of bytes of host memory used (Byte)
simInsts                                    110894594                       # Number of instructions simulated (Count)
simOps                                      248351131                       # Number of ops (including micro ops) simulated (Count)
hostInstRate                                   304077                       # Simulator instruction rate (inst/s) ((Count/Second))
hostOpRate                                     680988                       # Simulator op (including micro ops) rate (op/s) ((Count/Second))
system.clk_domain.clock                           500                       # Clock period in ticks (Tick)
system.clk_domain.voltage_domain.voltage            1                       # Voltage in Volts (Volt)
system.cpu.numCycles                      56911006488                       # Number of cpu cycles simulated (Cycle)
system.cpu.cpi                             513.194450                       # CPI: cycles per instruction (core level) ((Cycle/Count))
system.cpu.ipc                               0.001949                       # IPC: instructions per cycle (core level) ((Count/Cycle))
system.cpu.numWorkItemsStarted                      0                       # Number of work items this cpu started (Count)
system.cpu.numWorkItemsCompleted                    0                       # Number of work items this cpu completed (Count)
system.cpu.commitStats0.numInsts            110895600                       # Number of instructions committed (thread level) (Count)
system.cpu.commitStats0.numOps              248352139                       # Number of ops (including micro ops) committed (thread level) (Count)
system.cpu.commitStats0.numInstsNotNOP              0                       # Number of instructions committed excluding NOPs or prefetches (Count)
system.cpu.commitStats0.numOpsNotNOP                0                       # Number of Ops (including micro ops) Simulated (Count)
system.cpu.commitStats0.cpi                513.194450                       # CPI: cycles per instruction (thread level) ((Cycle/Count))
system.cpu.commitStats0.ipc                  0.001949                       # IPC: instructions per cycle (thread level) ((Count/Cycle))
system.cpu.commitStats0.numMemRefs                  0                       # Number of memory references committed (Count)
system.cpu.commitStats0.numFpInsts            7234798                       # Number of float instructions (Count)
system.cpu.commitStats0.numIntInsts         235359660                       # Number of integer instructions (Count)
system.cpu.commitStats0.numLoadInsts         34985351                       # Number of load instructions (Count)
system.cpu.commitStats0.numStoreInsts        22650777                       # Number of store instructions (Count)
system.cpu.commitStats0.numVecInsts                 0                       # Number of vector instructions (Count)
system.cpu.commitStats0.committedInstType::No_OpClass      3094972      1.25%      1.25% # Class of committed instruction. (Count)
system.cpu.commitStats0.committedInstType::IntAlu    169717984     68.34%     69.58% # Class of committed instruction. (Count)
system.cpu.commitStats0.committedInstType::IntMult          156      0.00%     69.58% # Class of committed instruction. (Count)
system.cpu.commitStats0.committedInstType::IntDiv     13763964      5.54%     75.13% # Class of committed instruction. (Count)
system.cpu.commitStats0.committedInstType::FloatAdd      2061713      0.83%     75.96% # Class of committed instruction. (Count)
system.cpu.commitStats0.committedInstType::FloatCmp            0      0.00%     75.96% # Class of committed instruction. (Count)
system.cpu.commitStats0.committedInstType::FloatCvt            0      0.00%     75.96% # Class of committed instruction. (Count)
system.cpu.commitStats0.committedInstType::FloatMult            0      0.00%     75.96% # Class of committed instruction. (Count)
system.cpu.commitStats0.committedInstType::FloatMultAcc            0      0.00%     75.96% # Class of committed instruction. (Count)
system.cpu.commitStats0.committedInstType::FloatDiv            0      0.00%     75.96% # Class of committed instruction. (Count)
system.cpu.commitStats0.committedInstType::FloatMisc            0      0.00%     75.96% # Class of committed instruction. (Count)
system.cpu.commitStats0.committedInstType::FloatSqrt            0      0.00%     75.96% # Class of committed instruction. (Count)
system.cpu.commitStats0.committedInstType::SimdAdd          264      0.00%     75.96% # Class of committed instruction. (Count)
system.cpu.commitStats0.committedInstType::SimdAddAcc            0      0.00%     75.96% # Class of committed instruction. (Count)
system.cpu.commitStats0.committedInstType::SimdAlu         9732      0.00%     75.96% # Class of committed instruction. (Count)
system.cpu.commitStats0.committedInstType::SimdCmp            0      0.00%     75.96% # Class of committed instruction. (Count)
system.cpu.commitStats0.committedInstType::SimdCvt         2486      0.00%     75.96% # Class of committed instruction. (Count)
system.cpu.commitStats0.committedInstType::SimdMisc      2064732      0.83%     76.79% # Class of committed instruction. (Count)
system.cpu.commitStats0.committedInstType::SimdMult            0      0.00%     76.79% # Class of committed instruction. (Count)
system.cpu.commitStats0.committedInstType::SimdMultAcc            0      0.00%     76.79% # Class of committed instruction. (Count)
system.cpu.commitStats0.committedInstType::SimdMatMultAcc            0      0.00%     76.79% # Class of committed instruction. (Count)
system.cpu.commitStats0.committedInstType::SimdShift            0      0.00%     76.79% # Class of committed instruction. (Count)
system.cpu.commitStats0.committedInstType::SimdShiftAcc            0      0.00%     76.79% # Class of committed instruction. (Count)
system.cpu.commitStats0.committedInstType::SimdDiv            0      0.00%     76.79% # Class of committed instruction. (Count)
system.cpu.commitStats0.committedInstType::SimdSqrt            0      0.00%     76.79% # Class of committed instruction. (Count)
system.cpu.commitStats0.committedInstType::SimdFloatAdd            0      0.00%     76.79% # Class of committed instruction. (Count)
system.cpu.commitStats0.committedInstType::SimdFloatAlu            0      0.00%     76.79% # Class of committed instruction. (Count)
system.cpu.commitStats0.committedInstType::SimdFloatCmp            0      0.00%     76.79% # Class of committed instruction. (Count)
system.cpu.commitStats0.committedInstType::SimdFloatCvt            6      0.00%     76.79% # Class of committed instruction. (Count)
system.cpu.commitStats0.committedInstType::SimdFloatDiv            2      0.00%     76.79% # Class of committed instruction. (Count)
system.cpu.commitStats0.committedInstType::SimdFloatMisc            0      0.00%     76.79% # Class of committed instruction. (Count)
system.cpu.commitStats0.committedInstType::SimdFloatMult            0      0.00%     76.79% # Class of committed instruction. (Count)
system.cpu.commitStats0.committedInstType::SimdFloatMultAcc            0      0.00%     76.79% # Class of committed instruction. (Count)
system.cpu.commitStats0.committedInstType::SimdFloatMatMultAcc            0      0.00%     76.79% # Class of committed instruction. (Count)
system.cpu.commitStats0.committedInstType::SimdFloatSqrt            0      0.00%     76.79% # Class of committed instruction. (Count)
system.cpu.commitStats0.committedInstType::SimdReduceAdd            0      0.00%     76.79% # Class of committed instruction. (Count)
system.cpu.commitStats0.committedInstType::SimdReduceAlu            0      0.00%     76.79% # Class of committed instruction. (Count)
system.cpu.commitStats0.committedInstType::SimdReduceCmp            0      0.00%     76.79% # Class of committed instruction. (Count)
system.cpu.commitStats0.committedInstType::SimdFloatReduceAdd            0      0.00%     76.79% # Class of committed instruction. (Count)
system.cpu.commitStats0.committedInstType::SimdFloatReduceCmp            0      0.00%     76.79% # Class of committed instruction. (Count)
system.cpu.commitStats0.committedInstType::SimdAes            0      0.00%     76.79% # Class of committed instruction. (Count)
system.cpu.commitStats0.committedInstType::SimdAesMix            0      0.00%     76.79% # Class of committed instruction. (Count)
system.cpu.commitStats0.committedInstType::SimdSha1Hash            0      0.00%     76.79% # Class of committed instruction. (Count)
system.cpu.commitStats0.committedInstType::SimdSha1Hash2            0      0.00%     76.79% # Class of committed instruction. (Count)
system.cpu.commitStats0.committedInstType::SimdSha256Hash            0      0.00%     76.79% # Class of committed instruction. (Count)
system.cpu.commitStats0.committedInstType::SimdSha256Hash2            0      0.00%     76.79% # Class of committed instruction. (Count)
system.cpu.commitStats0.committedInstType::SimdShaSigma2            0      0.00%     76.79% # Class of committed instruction. (Count)
system.cpu.commitStats0.committedInstType::SimdShaSigma3            0      0.00%     76.79% # Class of committed instruction. (Count)
system.cpu.commitStats0.committedInstType::SimdPredAlu            0      0.00%     76.79% # Class of committed instruction. (Count)
system.cpu.commitStats0.committedInstType::Matrix            0      0.00%     76.79% # Class of committed instruction. (Count)
system.cpu.commitStats0.committedInstType::MatrixMov            0      0.00%     76.79% # Class of committed instruction. (Count)
system.cpu.commitStats0.committedInstType::MatrixOP            0      0.00%     76.79% # Class of committed instruction. (Count)
system.cpu.commitStats0.committedInstType::MemRead     34982605     14.09%     90.88% # Class of committed instruction. (Count)
system.cpu.commitStats0.committedInstType::MemWrite     20589097      8.29%     99.17% # Class of committed instruction. (Count)
system.cpu.commitStats0.committedInstType::FloatMemRead         2746      0.00%     99.17% # Class of committed instruction. (Count)
system.cpu.commitStats0.committedInstType::FloatMemWrite      2061680      0.83%    100.00% # Class of committed instruction. (Count)
system.cpu.commitStats0.committedInstType::IprAccess            0      0.00%    100.00% # Class of committed instruction. (Count)
system.cpu.commitStats0.committedInstType::InstPrefetch            0      0.00%    100.00% # Class of committed instruction. (Count)
system.cpu.commitStats0.committedInstType::VectorUnitStrideLoad            0      0.00%    100.00% # Class of committed instruction. (Count)
system.cpu.commitStats0.committedInstType::VectorUnitStrideStore            0      0.00%    100.00% # Class of committed instruction. (Count)
system.cpu.commitStats0.committedInstType::VectorUnitStrideMaskLoad            0      0.00%    100.00% # Class of committed instruction. (Count)
system.cpu.commitStats0.committedInstType::VectorUnitStrideMaskStore            0      0.00%    100.00% # Class of committed instruction. (Count)
system.cpu.commitStats0.committedInstType::VectorStridedLoad            0      0.00%    100.00% # Class of committed instruction. (Count)
system.cpu.commitStats0.committedInstType::VectorStridedStore            0      0.00%    100.00% # Class of committed instruction. (Count)
system.cpu.commitStats0.committedInstType::VectorIndexedLoad            0      0.00%    100.00% # Class of committed instruction. (Count)
system.cpu.commitStats0.committedInstType::VectorIndexedStore            0      0.00%    100.00% # Class of committed instruction. (Count)
system.cpu.commitStats0.committedInstType::VectorUnitStrideFaultOnlyFirstLoad            0      0.00%    100.00% # Class of committed instruction. (Count)
system.cpu.commitStats0.committedInstType::VectorWholeRegisterLoad            0      0.00%    100.00% # Class of committed instruction. (Count)
system.cpu.commitStats0.committedInstType::VectorWholeRegisterStore            0      0.00%    100.00% # Class of committed instruction. (Count)
system.cpu.commitStats0.committedInstType::VectorIntegerArith            0      0.00%    100.00% # Class of committed instruction. (Count)
system.cpu.commitStats0.committedInstType::VectorFloatArith            0      0.00%    100.00% # Class of committed instruction. (Count)
system.cpu.commitStats0.committedInstType::VectorFloatConvert            0      0.00%    100.00% # Class of committed instruction. (Count)
system.cpu.commitStats0.committedInstType::VectorIntegerReduce            0      0.00%    100.00% # Class of committed instruction. (Count)
system.cpu.commitStats0.committedInstType::VectorFloatReduce            0      0.00%    100.00% # Class of committed instruction. (Count)
system.cpu.commitStats0.committedInstType::VectorMisc            0      0.00%    100.00% # Class of committed instruction. (Count)
system.cpu.commitStats0.committedInstType::VectorIntegerExtension            0      0.00%    100.00% # Class of committed instruction. (Count)
system.cpu.commitStats0.committedInstType::VectorConfig            0      0.00%    100.00% # Class of committed instruction. (Count)
system.cpu.commitStats0.committedInstType::total    248352139                       # Class of committed instruction. (Count)
system.cpu.commitStats0.committedControl::IsControl     24455450                       # Class of control type instructions committed (Count)
system.cpu.commitStats0.committedControl::IsDirectControl     19271430                       # Class of control type instructions committed (Count)
system.cpu.commitStats0.committedControl::IsIndirectControl      5184020                       # Class of control type instructions committed (Count)
system.cpu.commitStats0.committedControl::IsCondControl     13115781                       # Class of control type instructions committed (Count)
system.cpu.commitStats0.committedControl::IsUncondControl     11339669                       # Class of control type instructions committed (Count)
system.cpu.commitStats0.committedControl::IsCall      5163105                       # Class of control type instructions committed (Count)
system.cpu.commitStats0.committedControl::IsReturn      5163100                       # Class of control type instructions committed (Count)
system.cpu.exec_context.thread_0.numMatAluAccesses            0                       # Number of matrix alu accesses (Count)
system.cpu.exec_context.thread_0.numCallsReturns     10326205                       # Number of times a function call or return occured (Count)
system.cpu.exec_context.thread_0.numMatInsts            0                       # Number of matrix instructions (Count)
system.cpu.exec_context.thread_0.numIdleCycles     0.002003                       # Number of idle cycles (Cycle)
system.cpu.exec_context.thread_0.numBusyCycles 56911006487.997993                       # Number of busy cycles (Cycle)
system.cpu.exec_context.thread_0.notIdleFraction     1.000000                       # Percentage of non-idle cycles (Ratio)
system.cpu.exec_context.thread_0.idleFraction     0.000000                       # Percentage of idle cycles (Ratio)
system.cpu.executeStats0.numInsts                   0                       # Number of executed instructions (Count)
system.cpu.executeStats0.numNop                     0                       # Number of nop insts executed (Count)
system.cpu.executeStats0.numBranches                0                       # Number of branches executed (Count)
system.cpu.executeStats0.numLoadInsts               0                       # Number of load instructions executed (Count)
system.cpu.executeStats0.numStoreInsts       57636128                       # Number of stores executed (Count)
system.cpu.executeStats0.instRate                   0                       # Inst execution rate ((Count/Cycle))
system.cpu.executeStats0.numFpAluAccesses      7234798                       # Number of float alu accesses (Count)
system.cpu.executeStats0.numFpRegReads        6217794                       # Number of times the floating registers were read (Count)
system.cpu.executeStats0.numFpRegWrites       5170642                       # Number of times the floating registers were written (Count)
system.cpu.executeStats0.numIntAluAccesses    235359660                       # Number of integer alu accesses (Count)
system.cpu.executeStats0.numIntRegReads     358958224                       # Number of times the integer registers were read (Count)
system.cpu.executeStats0.numIntRegWrites    203872605                       # Number of times the integer registers were written (Count)
system.cpu.executeStats0.numMemRefs          57636128                       # Number of memory refs (Count)
system.cpu.executeStats0.numMiscRegReads     99135835                       # Number of times the Misc registers were read (Count)
system.cpu.executeStats0.numVecAluAccesses            0                       # Number of vector alu accesses (Count)
system.cpu.executeStats0.numDiscardedOps            0                       # Number of ops (including micro ops) which were discarded before commit (Count)
system.cpu.fetchStats0.numInsts             110895600                       # Number of instructions fetched (thread level) (Count)
system.cpu.fetchStats0.numOps               248352139                       # Number of ops (including micro ops) fetched (thread level) (Count)
system.cpu.fetchStats0.fetchRate             0.001949                       # Number of inst fetches per cycle ((Count/Cycle))
system.cpu.fetchStats0.numBranches           24455450                       # Number of branches fetched (Count)
system.cpu.fetchStats0.branchRate            0.000430                       # Number of branch fetches per cycle (Ratio)
system.cpu.fetchStats0.numFetchSuspends             0                       # Number of times Execute suspended instruction fetching (Count)
system.cpu.interrupts.clk_domain.clock           8000                       # Clock period in ticks (Tick)
system.cpu.mmu.dtb.rdAccesses                34985377                       # TLB accesses on read requests (Count)
system.cpu.mmu.dtb.wrAccesses                22650787                       # TLB accesses on write requests (Count)
system.cpu.mmu.dtb.rdMisses                      9527                       # TLB misses on read requests (Count)
system.cpu.mmu.dtb.wrMisses                     12339                       # TLB misses on write requests (Count)
system.cpu.mmu.dtb.walker.power_state.pwrStateResidencyTicks::UNDEFINED 28455503244000                       # Cumulative time (in ticks) in various power states (Tick)
system.cpu.mmu.itb.rdAccesses                       0                       # TLB accesses on read requests (Count)
system.cpu.mmu.itb.wrAccesses               139964373                       # TLB accesses on write requests (Count)
system.cpu.mmu.itb.rdMisses                         0                       # TLB misses on read requests (Count)
system.cpu.mmu.itb.wrMisses                       142                       # TLB misses on write requests (Count)
system.cpu.mmu.itb.walker.power_state.pwrStateResidencyTicks::UNDEFINED 28455503244000                       # Cumulative time (in ticks) in various power states (Tick)
system.cpu.power_state.pwrStateResidencyTicks::ON 28455503244000                       # Cumulative time (in ticks) in various power states (Tick)
system.cpu.thread_0.numInsts                        0                       # Number of Instructions committed (Count)
system.cpu.thread_0.numOps                          0                       # Number of Ops committed (Count)
system.cpu.thread_0.numMemRefs                      0                       # Number of Memory References (Count)
system.cpu.workload.numSyscalls                    26                       # Number of system calls (Count)
system.cxlswitch.power_state.pwrStateResidencyTicks::UNDEFINED 28455503244000                       # Cumulative time (in ticks) in various power states (Tick)
system.cxlswitch2.power_state.pwrStateResidencyTicks::UNDEFINED 28455503244000                       # Cumulative time (in ticks) in various power states (Tick)
system.journal.power_state.pwrStateResidencyTicks::UNDEFINED 28455503244000                       # Cumulative time (in ticks) in various power states (Tick)
system.mem_ctrl.avgPriority_cpu.inst::samples 139964373.00                       # Average QoS priority value for accepted requests (Count)
system.mem_ctrl.avgPriority_cpu.data::samples  23215297.00                       # Average QoS priority value for accepted requests (Count)
system.mem_ctrl.priorityMinLatency       0.000000018750                       # per QoS priority minimum request to response latency (Second)
system.mem_ctrl.priorityMaxLatency       0.531930772250                       # per QoS priority maximum request to response latency (Second)
system.mem_ctrl.numReadWriteTurnArounds          9278                       # Number of turnarounds from READ to WRITE (Count)
system.mem_ctrl.numWriteReadTurnArounds          9278                       # Number of turnarounds from WRITE to READ (Count)
system.mem_ctrl.numStayReadState            355981811                       # Number of times bus staying in READ state (Count)
system.mem_ctrl.numStayWriteState              157803                       # Number of times bus staying in WRITE state (Count)
system.mem_ctrl.readReqs                    174949749                       # Number of read requests accepted (Count)
system.mem_ctrl.writeReqs                    22649806                       # Number of write requests accepted (Count)
system.mem_ctrl.readBursts                  174949749                       # Number of controller read bursts, including those serviced by the write queue (Count)
system.mem_ctrl.writeBursts                  22649806                       # Number of controller write bursts, including those merged in the write queue (Count)
system.mem_ctrl.servicedByWrQ                11936945                       # Number of controller read bursts serviced by the write queue (Count)
system.mem_ctrl.mergedWrBursts               22482940                       # Number of controller write bursts merged with an existing one (Count)
system.mem_ctrl.neitherReadNorWriteReqs             0                       # Number of requests that are neither read nor write (Count)
system.mem_ctrl.avgRdQLen                        1.00                       # Average read queue length when enqueuing ((Count/Tick))
system.mem_ctrl.avgWrQLen                       25.70                       # Average write queue length when enqueuing ((Count/Tick))
system.mem_ctrl.numRdRetry                          0                       # Number of times read queue was full causing retry (Count)
system.mem_ctrl.numWrRetry                          0                       # Number of times write queue was full causing retry (Count)
system.mem_ctrl.readPktSize::0                  19760                       # Read request sizes (log2) (Count)
system.mem_ctrl.readPktSize::1                     47                       # Read request sizes (log2) (Count)
system.mem_ctrl.readPktSize::2               13399666                       # Read request sizes (log2) (Count)
system.mem_ctrl.readPktSize::3              161530276                       # Read request sizes (log2) (Count)
system.mem_ctrl.readPktSize::4                      0                       # Read request sizes (log2) (Count)
system.mem_ctrl.readPktSize::5                      0                       # Read request sizes (log2) (Count)
system.mem_ctrl.readPktSize::6                      0                       # Read request sizes (log2) (Count)
system.mem_ctrl.writePktSize::0                  9940                       # Write request sizes (log2) (Count)
system.mem_ctrl.writePktSize::1                    36                       # Write request sizes (log2) (Count)
system.mem_ctrl.writePktSize::2               9241536                       # Write request sizes (log2) (Count)
system.mem_ctrl.writePktSize::3              13398294                       # Write request sizes (log2) (Count)
system.mem_ctrl.writePktSize::4                     0                       # Write request sizes (log2) (Count)
system.mem_ctrl.writePktSize::5                     0                       # Write request sizes (log2) (Count)
system.mem_ctrl.writePktSize::6                     0                       # Write request sizes (log2) (Count)
system.mem_ctrl.rdQLenPdf::0                163012779                       # What read queue length does an incoming req see (Count)
system.mem_ctrl.rdQLenPdf::1                       25                       # What read queue length does an incoming req see (Count)
system.mem_ctrl.rdQLenPdf::2                        0                       # What read queue length does an incoming req see (Count)
system.mem_ctrl.rdQLenPdf::3                        0                       # What read queue length does an incoming req see (Count)
system.mem_ctrl.rdQLenPdf::4                        0                       # What read queue length does an incoming req see (Count)
system.mem_ctrl.rdQLenPdf::5                        0                       # What read queue length does an incoming req see (Count)
system.mem_ctrl.rdQLenPdf::6                        0                       # What read queue length does an incoming req see (Count)
system.mem_ctrl.rdQLenPdf::7                        0                       # What read queue length does an incoming req see (Count)
system.mem_ctrl.rdQLenPdf::8                        0                       # What read queue length does an incoming req see (Count)
system.mem_ctrl.rdQLenPdf::9                        0                       # What read queue length does an incoming req see (Count)
system.mem_ctrl.rdQLenPdf::10                       0                       # What read queue length does an incoming req see (Count)
system.mem_ctrl.rdQLenPdf::11                       0                       # What read queue length does an incoming req see (Count)
system.mem_ctrl.rdQLenPdf::12                       0                       # What read queue length does an incoming req see (Count)
system.mem_ctrl.rdQLenPdf::13                       0                       # What read queue length does an incoming req see (Count)
system.mem_ctrl.rdQLenPdf::14                       0                       # What read queue length does an incoming req see (Count)
system.mem_ctrl.rdQLenPdf::15                       0                       # What read queue length does an incoming req see (Count)
system.mem_ctrl.rdQLenPdf::16                       0                       # What read queue length does an incoming req see (Count)
system.mem_ctrl.rdQLenPdf::17                       0                       # What read queue length does an incoming req see (Count)
system.mem_ctrl.rdQLenPdf::18                       0                       # What read queue length does an incoming req see (Count)
system.mem_ctrl.rdQLenPdf::19                       0                       # What read queue length does an incoming req see (Count)
system.mem_ctrl.rdQLenPdf::20                       0                       # What read queue length does an incoming req see (Count)
system.mem_ctrl.rdQLenPdf::21                       0                       # What read queue length does an incoming req see (Count)
system.mem_ctrl.rdQLenPdf::22                       0                       # What read queue length does an incoming req see (Count)
system.mem_ctrl.rdQLenPdf::23                       0                       # What read queue length does an incoming req see (Count)
system.mem_ctrl.rdQLenPdf::24                       0                       # What read queue length does an incoming req see (Count)
system.mem_ctrl.rdQLenPdf::25                       0                       # What read queue length does an incoming req see (Count)
system.mem_ctrl.rdQLenPdf::26                       0                       # What read queue length does an incoming req see (Count)
system.mem_ctrl.rdQLenPdf::27                       0                       # What read queue length does an incoming req see (Count)
system.mem_ctrl.rdQLenPdf::28                       0                       # What read queue length does an incoming req see (Count)
system.mem_ctrl.rdQLenPdf::29                       0                       # What read queue length does an incoming req see (Count)
system.mem_ctrl.rdQLenPdf::30                       0                       # What read queue length does an incoming req see (Count)
system.mem_ctrl.rdQLenPdf::31                       0                       # What read queue length does an incoming req see (Count)
system.mem_ctrl.wrQLenPdf::0                        1                       # What write queue length does an incoming req see (Count)
system.mem_ctrl.wrQLenPdf::1                        1                       # What write queue length does an incoming req see (Count)
system.mem_ctrl.wrQLenPdf::2                        1                       # What write queue length does an incoming req see (Count)
system.mem_ctrl.wrQLenPdf::3                        1                       # What write queue length does an incoming req see (Count)
system.mem_ctrl.wrQLenPdf::4                        1                       # What write queue length does an incoming req see (Count)
system.mem_ctrl.wrQLenPdf::5                        1                       # What write queue length does an incoming req see (Count)
system.mem_ctrl.wrQLenPdf::6                        1                       # What write queue length does an incoming req see (Count)
system.mem_ctrl.wrQLenPdf::7                        1                       # What write queue length does an incoming req see (Count)
system.mem_ctrl.wrQLenPdf::8                        1                       # What write queue length does an incoming req see (Count)
system.mem_ctrl.wrQLenPdf::9                        1                       # What write queue length does an incoming req see (Count)
system.mem_ctrl.wrQLenPdf::10                       1                       # What write queue length does an incoming req see (Count)
system.mem_ctrl.wrQLenPdf::11                       1                       # What write queue length does an incoming req see (Count)
system.mem_ctrl.wrQLenPdf::12                       1                       # What write queue length does an incoming req see (Count)
system.mem_ctrl.wrQLenPdf::13                       1                       # What write queue length does an incoming req see (Count)
system.mem_ctrl.wrQLenPdf::14                       1                       # What write queue length does an incoming req see (Count)
system.mem_ctrl.wrQLenPdf::15                    9196                       # What write queue length does an incoming req see (Count)
system.mem_ctrl.wrQLenPdf::16                    9197                       # What write queue length does an incoming req see (Count)
system.mem_ctrl.wrQLenPdf::17                    9280                       # What write queue length does an incoming req see (Count)
system.mem_ctrl.wrQLenPdf::18                    9279                       # What write queue length does an incoming req see (Count)
system.mem_ctrl.wrQLenPdf::19                    9279                       # What write queue length does an incoming req see (Count)
system.mem_ctrl.wrQLenPdf::20                    9279                       # What write queue length does an incoming req see (Count)
system.mem_ctrl.wrQLenPdf::21                    9279                       # What write queue length does an incoming req see (Count)
system.mem_ctrl.wrQLenPdf::22                    9279                       # What write queue length does an incoming req see (Count)
system.mem_ctrl.wrQLenPdf::23                    9279                       # What write queue length does an incoming req see (Count)
system.mem_ctrl.wrQLenPdf::24                    9279                       # What write queue length does an incoming req see (Count)
system.mem_ctrl.wrQLenPdf::25                    9279                       # What write queue length does an incoming req see (Count)
system.mem_ctrl.wrQLenPdf::26                    9278                       # What write queue length does an incoming req see (Count)
system.mem_ctrl.wrQLenPdf::27                    9278                       # What write queue length does an incoming req see (Count)
system.mem_ctrl.wrQLenPdf::28                    9278                       # What write queue length does an incoming req see (Count)
system.mem_ctrl.wrQLenPdf::29                    9278                       # What write queue length does an incoming req see (Count)
system.mem_ctrl.wrQLenPdf::30                    9278                       # What write queue length does an incoming req see (Count)
system.mem_ctrl.wrQLenPdf::31                    9278                       # What write queue length does an incoming req see (Count)
system.mem_ctrl.wrQLenPdf::32                    9278                       # What write queue length does an incoming req see (Count)
system.mem_ctrl.wrQLenPdf::33                       0                       # What write queue length does an incoming req see (Count)
system.mem_ctrl.wrQLenPdf::34                       0                       # What write queue length does an incoming req see (Count)
system.mem_ctrl.wrQLenPdf::35                       0                       # What write queue length does an incoming req see (Count)
system.mem_ctrl.wrQLenPdf::36                       0                       # What write queue length does an incoming req see (Count)
system.mem_ctrl.wrQLenPdf::37                       0                       # What write queue length does an incoming req see (Count)
system.mem_ctrl.wrQLenPdf::38                       0                       # What write queue length does an incoming req see (Count)
system.mem_ctrl.wrQLenPdf::39                       0                       # What write queue length does an incoming req see (Count)
system.mem_ctrl.wrQLenPdf::40                       0                       # What write queue length does an incoming req see (Count)
system.mem_ctrl.wrQLenPdf::41                       0                       # What write queue length does an incoming req see (Count)
system.mem_ctrl.wrQLenPdf::42                       0                       # What write queue length does an incoming req see (Count)
system.mem_ctrl.wrQLenPdf::43                       0                       # What write queue length does an incoming req see (Count)
system.mem_ctrl.wrQLenPdf::44                       0                       # What write queue length does an incoming req see (Count)
system.mem_ctrl.wrQLenPdf::45                       0                       # What write queue length does an incoming req see (Count)
system.mem_ctrl.wrQLenPdf::46                       0                       # What write queue length does an incoming req see (Count)
system.mem_ctrl.wrQLenPdf::47                       0                       # What write queue length does an incoming req see (Count)
system.mem_ctrl.wrQLenPdf::48                       0                       # What write queue length does an incoming req see (Count)
system.mem_ctrl.wrQLenPdf::49                       0                       # What write queue length does an incoming req see (Count)
system.mem_ctrl.wrQLenPdf::50                       0                       # What write queue length does an incoming req see (Count)
system.mem_ctrl.wrQLenPdf::51                       0                       # What write queue length does an incoming req see (Count)
system.mem_ctrl.wrQLenPdf::52                       0                       # What write queue length does an incoming req see (Count)
system.mem_ctrl.wrQLenPdf::53                       0                       # What write queue length does an incoming req see (Count)
system.mem_ctrl.wrQLenPdf::54                       0                       # What write queue length does an incoming req see (Count)
system.mem_ctrl.wrQLenPdf::55                       0                       # What write queue length does an incoming req see (Count)
system.mem_ctrl.wrQLenPdf::56                       0                       # What write queue length does an incoming req see (Count)
system.mem_ctrl.wrQLenPdf::57                       0                       # What write queue length does an incoming req see (Count)
system.mem_ctrl.wrQLenPdf::58                       0                       # What write queue length does an incoming req see (Count)
system.mem_ctrl.wrQLenPdf::59                       0                       # What write queue length does an incoming req see (Count)
system.mem_ctrl.wrQLenPdf::60                       0                       # What write queue length does an incoming req see (Count)
system.mem_ctrl.wrQLenPdf::61                       0                       # What write queue length does an incoming req see (Count)
system.mem_ctrl.wrQLenPdf::62                       0                       # What write queue length does an incoming req see (Count)
system.mem_ctrl.wrQLenPdf::63                       0                       # What write queue length does an incoming req see (Count)
system.mem_ctrl.rdPerTurnAround::samples         9278                       # Reads before turning the bus around for writes (Count)
system.mem_ctrl.rdPerTurnAround::mean    17569.753934                       # Reads before turning the bus around for writes (Count)
system.mem_ctrl.rdPerTurnAround::gmean    9944.725365                       # Reads before turning the bus around for writes (Count)
system.mem_ctrl.rdPerTurnAround::stdev   24266.912180                       # Reads before turning the bus around for writes (Count)
system.mem_ctrl.rdPerTurnAround::0-65535         9275     99.97%     99.97% # Reads before turning the bus around for writes (Count)
system.mem_ctrl.rdPerTurnAround::786432-851967            2      0.02%     99.99% # Reads before turning the bus around for writes (Count)
system.mem_ctrl.rdPerTurnAround::1.50733e+06-1.57286e+06            1      0.01%    100.00% # Reads before turning the bus around for writes (Count)
system.mem_ctrl.rdPerTurnAround::total           9278                       # Reads before turning the bus around for writes (Count)
system.mem_ctrl.wrPerTurnAround::samples         9278                       # Writes before turning the bus around for reads (Count)
system.mem_ctrl.wrPerTurnAround::mean       17.982324                       # Writes before turning the bus around for reads (Count)
system.mem_ctrl.wrPerTurnAround::gmean      17.981266                       # Writes before turning the bus around for reads (Count)
system.mem_ctrl.wrPerTurnAround::stdev       0.187775                       # Writes before turning the bus around for reads (Count)
system.mem_ctrl.wrPerTurnAround::16                82      0.88%      0.88% # Writes before turning the bus around for reads (Count)
system.mem_ctrl.wrPerTurnAround::17                 1      0.01%      0.89% # Writes before turning the bus around for reads (Count)
system.mem_ctrl.wrPerTurnAround::18              9194     99.09%     99.99% # Writes before turning the bus around for reads (Count)
system.mem_ctrl.wrPerTurnAround::19                 1      0.01%    100.00% # Writes before turning the bus around for reads (Count)
system.mem_ctrl.wrPerTurnAround::total           9278                       # Writes before turning the bus around for reads (Count)
system.mem_ctrl.bytesReadWrQ                763964480                       # Total number of bytes read from write queue (Byte)
system.mem_ctrl.bytesReadSys               1345860692                       # Total read bytes from the system interface side (Byte)
system.mem_ctrl.bytesWrittenSys             144162500                       # Total written bytes from the system interface side (Byte)
system.mem_ctrl.avgRdBWSys               47297026.53506162                       # Average system read bandwidth in Byte/s ((Byte/Second))
system.mem_ctrl.avgWrBWSys               5066243.20658948                       # Average system write bandwidth in Byte/s ((Byte/Second))
system.mem_ctrl.totGap                   28455503100000                       # Total gap between requests (Tick)
system.mem_ctrl.avgGap                      144005.91                       # Average gap between requests ((Tick/Count))
system.mem_ctrl.requestorReadBytes::cpu.inst   1119714984                       # Per-requestor bytes read from memory (Byte)
system.mem_ctrl.requestorReadBytes::cpu.data    151569216                       # Per-requestor bytes read from memory (Byte)
system.mem_ctrl.requestorWriteBytes::cpu.data       734541                       # Per-requestor bytes write to memory (Byte)
system.mem_ctrl.requestorReadRate::cpu.inst 39349681.304128691554                       # Per-requestor bytes read from memory rate ((Byte/Second))
system.mem_ctrl.requestorReadRate::cpu.data 5326534.368425172754                       # Per-requestor bytes read from memory rate ((Byte/Second))
system.mem_ctrl.requestorWriteRate::cpu.data 25813.671039357985                       # Per-requestor bytes write to memory rate ((Byte/Second))
system.mem_ctrl.requestorReadAccesses::cpu.inst    139964373                       # Per-requestor read serviced memory accesses (Count)
system.mem_ctrl.requestorReadAccesses::cpu.data     34985376                       # Per-requestor read serviced memory accesses (Count)
system.mem_ctrl.requestorWriteAccesses::cpu.data     22649806                       # Per-requestor write serviced memory accesses (Count)
system.mem_ctrl.requestorReadTotalLat::cpu.inst 3394220509250                       # Per-requestor read total memory access latency (Tick)
system.mem_ctrl.requestorReadTotalLat::cpu.data 658952622750                       # Per-requestor read total memory access latency (Tick)
system.mem_ctrl.requestorWriteTotalLat::cpu.data 729035246618500                       # Per-requestor write total memory access latency (Tick)
system.mem_ctrl.requestorReadAvgLat::cpu.inst     24250.60                       # Per-requestor read average memory access latency ((Tick/Count))
system.mem_ctrl.requestorReadAvgLat::cpu.data     18835.09                       # Per-requestor read average memory access latency ((Tick/Count))
system.mem_ctrl.requestorWriteAvgLat::cpu.data  32187262.29                       # Per-requestor write average memory access latency ((Tick/Count))
system.mem_ctrl.dram.bytesRead::cpu.inst   1119714984                       # Number of bytes read from this memory (Byte)
system.mem_ctrl.dram.bytesRead::cpu.data    226145708                       # Number of bytes read from this memory (Byte)
system.mem_ctrl.dram.bytesRead::total      1345860692                       # Number of bytes read from this memory (Byte)
system.mem_ctrl.dram.bytesInstRead::cpu.inst   1119714984                       # Number of instructions bytes read from this memory (Byte)
system.mem_ctrl.dram.bytesInstRead::total   1119714984                       # Number of instructions bytes read from this memory (Byte)
system.mem_ctrl.dram.bytesWritten::cpu.data    144162500                       # Number of bytes written to this memory (Byte)
system.mem_ctrl.dram.bytesWritten::total    144162500                       # Number of bytes written to this memory (Byte)
system.mem_ctrl.dram.numReads::cpu.inst     139964373                       # Number of read requests responded to by this memory (Count)
system.mem_ctrl.dram.numReads::cpu.data      34985376                       # Number of read requests responded to by this memory (Count)
system.mem_ctrl.dram.numReads::total        174949749                       # Number of read requests responded to by this memory (Count)
system.mem_ctrl.dram.numWrites::cpu.data     22649806                       # Number of write requests responded to by this memory (Count)
system.mem_ctrl.dram.numWrites::total        22649806                       # Number of write requests responded to by this memory (Count)
system.mem_ctrl.dram.bwRead::cpu.inst        39349681                       # Total read bandwidth from this memory ((Byte/Second))
system.mem_ctrl.dram.bwRead::cpu.data         7947345                       # Total read bandwidth from this memory ((Byte/Second))
system.mem_ctrl.dram.bwRead::total           47297027                       # Total read bandwidth from this memory ((Byte/Second))
system.mem_ctrl.dram.bwInstRead::cpu.inst     39349681                       # Instruction read bandwidth from this memory ((Byte/Second))
system.mem_ctrl.dram.bwInstRead::total       39349681                       # Instruction read bandwidth from this memory ((Byte/Second))
system.mem_ctrl.dram.bwWrite::cpu.data        5066243                       # Write bandwidth from this memory ((Byte/Second))
system.mem_ctrl.dram.bwWrite::total           5066243                       # Write bandwidth from this memory ((Byte/Second))
system.mem_ctrl.dram.bwTotal::cpu.inst       39349681                       # Total bandwidth to/from this memory ((Byte/Second))
system.mem_ctrl.dram.bwTotal::cpu.data       13013588                       # Total bandwidth to/from this memory ((Byte/Second))
system.mem_ctrl.dram.bwTotal::total          52363270                       # Total bandwidth to/from this memory ((Byte/Second))
system.mem_ctrl.dram.readBursts             163012804                       # Number of DRAM read bursts (Count)
system.mem_ctrl.dram.writeBursts               166840                       # Number of DRAM write bursts (Count)
system.mem_ctrl.dram.perBankRdBursts::0      34860102                       # Per bank write bursts (Count)
system.mem_ctrl.dram.perBankRdBursts::1      15154674                       # Per bank write bursts (Count)
system.mem_ctrl.dram.perBankRdBursts::2      65162848                       # Per bank write bursts (Count)
system.mem_ctrl.dram.perBankRdBursts::3         22220                       # Per bank write bursts (Count)
system.mem_ctrl.dram.perBankRdBursts::4          5139                       # Per bank write bursts (Count)
system.mem_ctrl.dram.perBankRdBursts::5         29790                       # Per bank write bursts (Count)
system.mem_ctrl.dram.perBankRdBursts::6          7128                       # Per bank write bursts (Count)
system.mem_ctrl.dram.perBankRdBursts::7          5391                       # Per bank write bursts (Count)
system.mem_ctrl.dram.perBankRdBursts::8          8196                       # Per bank write bursts (Count)
system.mem_ctrl.dram.perBankRdBursts::9          5796                       # Per bank write bursts (Count)
system.mem_ctrl.dram.perBankRdBursts::10         3946                       # Per bank write bursts (Count)
system.mem_ctrl.dram.perBankRdBursts::11      6448238                       # Per bank write bursts (Count)
system.mem_ctrl.dram.perBankRdBursts::12        18455                       # Per bank write bursts (Count)
system.mem_ctrl.dram.perBankRdBursts::13        48393                       # Per bank write bursts (Count)
system.mem_ctrl.dram.perBankRdBursts::14        17586                       # Per bank write bursts (Count)
system.mem_ctrl.dram.perBankRdBursts::15     41214902                       # Per bank write bursts (Count)
system.mem_ctrl.dram.perBankWrBursts::0          8552                       # Per bank write bursts (Count)
system.mem_ctrl.dram.perBankWrBursts::1         28320                       # Per bank write bursts (Count)
system.mem_ctrl.dram.perBankWrBursts::2          8678                       # Per bank write bursts (Count)
system.mem_ctrl.dram.perBankWrBursts::3          8632                       # Per bank write bursts (Count)
system.mem_ctrl.dram.perBankWrBursts::4          8599                       # Per bank write bursts (Count)
system.mem_ctrl.dram.perBankWrBursts::5          8597                       # Per bank write bursts (Count)
system.mem_ctrl.dram.perBankWrBursts::6          8543                       # Per bank write bursts (Count)
system.mem_ctrl.dram.perBankWrBursts::7          8566                       # Per bank write bursts (Count)
system.mem_ctrl.dram.perBankWrBursts::8          8607                       # Per bank write bursts (Count)
system.mem_ctrl.dram.perBankWrBursts::9          8560                       # Per bank write bursts (Count)
system.mem_ctrl.dram.perBankWrBursts::10         8598                       # Per bank write bursts (Count)
system.mem_ctrl.dram.perBankWrBursts::11        16369                       # Per bank write bursts (Count)
system.mem_ctrl.dram.perBankWrBursts::12         8474                       # Per bank write bursts (Count)
system.mem_ctrl.dram.perBankWrBursts::13         8464                       # Per bank write bursts (Count)
system.mem_ctrl.dram.perBankWrBursts::14        11010                       # Per bank write bursts (Count)
system.mem_ctrl.dram.perBankWrBursts::15         8271                       # Per bank write bursts (Count)
system.mem_ctrl.dram.totQLat             996683057000                       # Total ticks spent queuing (Tick)
system.mem_ctrl.dram.totBusLat           815064020000                       # Total ticks spent in databus transfers (Tick)
system.mem_ctrl.dram.totMemAccLat        4053173132000                       # Total ticks spent from burst creation until serviced by the DRAM (Tick)
system.mem_ctrl.dram.avgQLat                  6114.14                       # Average queueing delay per DRAM burst ((Tick/Count))
system.mem_ctrl.dram.avgBusLat                5000.00                       # Average bus latency per DRAM burst ((Tick/Count))
system.mem_ctrl.dram.avgMemAccLat            24864.14                       # Average memory access latency per DRAM burst ((Tick/Count))
system.mem_ctrl.dram.readRowHits            144081239                       # Number of row buffer hits during reads (Count)
system.mem_ctrl.dram.writeRowHits              138896                       # Number of row buffer hits during writes (Count)
system.mem_ctrl.dram.readRowHitRate             88.39                       # Row buffer hit rate for reads (Ratio)
system.mem_ctrl.dram.writeRowHitRate            83.25                       # Row buffer hit rate for writes (Ratio)
system.mem_ctrl.dram.bytesPerActivate::samples     18959503                       # Bytes accessed per row activation (Byte)
system.mem_ctrl.dram.bytesPerActivate::mean   550.831668                       # Bytes accessed per row activation (Byte)
system.mem_ctrl.dram.bytesPerActivate::gmean   391.687501                       # Bytes accessed per row activation (Byte)
system.mem_ctrl.dram.bytesPerActivate::stdev   359.523335                       # Bytes accessed per row activation (Byte)
system.mem_ctrl.dram.bytesPerActivate::0-127      2722866     14.36%     14.36% # Bytes accessed per row activation (Byte)
system.mem_ctrl.dram.bytesPerActivate::128-255      2366102     12.48%     26.84% # Bytes accessed per row activation (Byte)
system.mem_ctrl.dram.bytesPerActivate::256-383      1848660      9.75%     36.59% # Bytes accessed per row activation (Byte)
system.mem_ctrl.dram.bytesPerActivate::384-511      2404535     12.68%     49.27% # Bytes accessed per row activation (Byte)
system.mem_ctrl.dram.bytesPerActivate::512-639      1406475      7.42%     56.69% # Bytes accessed per row activation (Byte)
system.mem_ctrl.dram.bytesPerActivate::640-767       640364      3.38%     60.07% # Bytes accessed per row activation (Byte)
system.mem_ctrl.dram.bytesPerActivate::768-895      2118732     11.18%     71.25% # Bytes accessed per row activation (Byte)
system.mem_ctrl.dram.bytesPerActivate::896-1023       800905      4.22%     75.47% # Bytes accessed per row activation (Byte)
system.mem_ctrl.dram.bytesPerActivate::1024-1151      4650864     24.53%    100.00% # Bytes accessed per row activation (Byte)
system.mem_ctrl.dram.bytesPerActivate::total     18959503                       # Bytes accessed per row activation (Byte)
system.mem_ctrl.dram.dramBytesRead        10432819456                       # Total bytes read (Byte)
system.mem_ctrl.dram.dramBytesWritten        10677760                       # Total bytes written (Byte)
system.mem_ctrl.dram.avgRdBW               366.636266                       # Average DRAM read bandwidth in MiBytes/s ((Byte/Second))
system.mem_ctrl.dram.avgWrBW                 0.375244                       # Average DRAM write bandwidth in MiBytes/s ((Byte/Second))
system.mem_ctrl.dram.peakBW                  12800.00                       # Theoretical peak bandwidth in MiByte/s ((Byte/Second))
system.mem_ctrl.dram.busUtil                     2.87                       # Data bus utilization in percentage (Ratio)
system.mem_ctrl.dram.busUtilRead                 2.86                       # Data bus utilization in percentage for reads (Ratio)
system.mem_ctrl.dram.busUtilWrite                0.00                       # Data bus utilization in percentage for writes (Ratio)
system.mem_ctrl.dram.pageHitRate                88.38                       # Row buffer hit rate, read and write combined (Ratio)
system.mem_ctrl.dram.power_state.pwrStateResidencyTicks::UNDEFINED 28455503244000                       # Cumulative time (in ticks) in various power states (Tick)
system.mem_ctrl.dram.rank0.actEnergy      99502347420                       # Energy for activate commands per rank (pJ) (Joule)
system.mem_ctrl.dram.rank0.preEnergy      52886740500                       # Energy for precharge commands per rank (pJ) (Joule)
system.mem_ctrl.dram.rank0.readEnergy    822865664880                       # Energy for read commands per rank (pJ) (Joule)
system.mem_ctrl.dram.rank0.writeEnergy      461902140                       # Energy for write commands per rank (pJ) (Joule)
system.mem_ctrl.dram.rank0.refreshEnergy 2246252895120.000488                       # Energy for refresh commands per rank (pJ) (Joule)
system.mem_ctrl.dram.rank0.actBackEnergy 12355250808270                       # Energy for active background per rank (pJ) (Joule)
system.mem_ctrl.dram.rank0.preBackEnergy 522491512800                       # Energy for precharge background per rank (pJ) (Joule)
system.mem_ctrl.dram.rank0.actPowerDownEnergy            0                       # Energy for active power-down per rank (pJ) (Joule)
system.mem_ctrl.dram.rank0.prePowerDownEnergy            0                       # Energy for precharge power-down per rank (pJ) (Joule)
system.mem_ctrl.dram.rank0.selfRefreshEnergy            0                       # Energy for self refresh per rank (pJ) (Joule)
system.mem_ctrl.dram.rank0.totalEnergy   16099711871130                       # Total energy per rank (pJ) (Joule)
system.mem_ctrl.dram.rank0.averagePower    565.785526                       # Core power per rank (mW) (Watt)
system.mem_ctrl.dram.rank0.totalIdleTime            0                       # Total Idle time Per DRAM Rank (Tick)
system.mem_ctrl.dram.rank0.pwrStateTime::IDLE 1244621390250                       # Time in different power states (Tick)
system.mem_ctrl.dram.rank0.pwrStateTime::REF 950191580000                       # Time in different power states (Tick)
system.mem_ctrl.dram.rank0.pwrStateTime::SREF            0                       # Time in different power states (Tick)
system.mem_ctrl.dram.rank0.pwrStateTime::PRE_PDN            0                       # Time in different power states (Tick)
system.mem_ctrl.dram.rank0.pwrStateTime::ACT 26260690273750                       # Time in different power states (Tick)
system.mem_ctrl.dram.rank0.pwrStateTime::ACT_PDN            0                       # Time in different power states (Tick)
system.mem_ctrl.dram.rank1.actEnergy      35868546840                       # Energy for activate commands per rank (pJ) (Joule)
system.mem_ctrl.dram.rank1.preEnergy      19064573385                       # Energy for precharge commands per rank (pJ) (Joule)
system.mem_ctrl.dram.rank1.readEnergy    341045755680                       # Energy for read commands per rank (pJ) (Joule)
system.mem_ctrl.dram.rank1.writeEnergy      409002660                       # Energy for write commands per rank (pJ) (Joule)
system.mem_ctrl.dram.rank1.refreshEnergy 2246252895120.000488                       # Energy for refresh commands per rank (pJ) (Joule)
system.mem_ctrl.dram.rank1.actBackEnergy 7566799853910                       # Energy for active background per rank (pJ) (Joule)
system.mem_ctrl.dram.rank1.preBackEnergy 4554871263840                       # Energy for precharge background per rank (pJ) (Joule)
system.mem_ctrl.dram.rank1.actPowerDownEnergy            0                       # Energy for active power-down per rank (pJ) (Joule)
system.mem_ctrl.dram.rank1.prePowerDownEnergy            0                       # Energy for precharge power-down per rank (pJ) (Joule)
system.mem_ctrl.dram.rank1.selfRefreshEnergy            0                       # Energy for self refresh per rank (pJ) (Joule)
system.mem_ctrl.dram.rank1.totalEnergy   14764311891435                       # Total energy per rank (pJ) (Joule)
system.mem_ctrl.dram.rank1.averagePower    518.856116                       # Core power per rank (mW) (Watt)
system.mem_ctrl.dram.rank1.totalIdleTime            0                       # Total Idle time Per DRAM Rank (Tick)
system.mem_ctrl.dram.rank1.pwrStateTime::IDLE 11760444308000                       # Time in different power states (Tick)
system.mem_ctrl.dram.rank1.pwrStateTime::REF 950191580000                       # Time in different power states (Tick)
system.mem_ctrl.dram.rank1.pwrStateTime::SREF            0                       # Time in different power states (Tick)
system.mem_ctrl.dram.rank1.pwrStateTime::PRE_PDN            0                       # Time in different power states (Tick)
system.mem_ctrl.dram.rank1.pwrStateTime::ACT 15744867356000                       # Time in different power states (Tick)
system.mem_ctrl.dram.rank1.pwrStateTime::ACT_PDN            0                       # Time in different power states (Tick)
system.mem_ctrl.power_state.pwrStateResidencyTicks::UNDEFINED 28455503244000                       # Cumulative time (in ticks) in various power states (Tick)
system.mem_ctrl2.priorityMinLatency      0.000000000000                       # per QoS priority minimum request to response latency (Second)
system.mem_ctrl2.priorityMaxLatency      0.000000000000                       # per QoS priority maximum request to response latency (Second)
system.mem_ctrl2.numReadWriteTurnArounds            0                       # Number of turnarounds from READ to WRITE (Count)
system.mem_ctrl2.numWriteReadTurnArounds            0                       # Number of turnarounds from WRITE to READ (Count)
system.mem_ctrl2.numStayReadState             7309166                       # Number of times bus staying in READ state (Count)
system.mem_ctrl2.numStayWriteState                  0                       # Number of times bus staying in WRITE state (Count)
system.mem_ctrl2.readReqs                           0                       # Number of read requests accepted (Count)
system.mem_ctrl2.writeReqs                          0                       # Number of write requests accepted (Count)
system.mem_ctrl2.readBursts                         0                       # Number of controller read bursts, including those serviced by the write queue (Count)
system.mem_ctrl2.writeBursts                        0                       # Number of controller write bursts, including those merged in the write queue (Count)
system.mem_ctrl2.servicedByWrQ                      0                       # Number of controller read bursts serviced by the write queue (Count)
system.mem_ctrl2.mergedWrBursts                     0                       # Number of controller write bursts merged with an existing one (Count)
system.mem_ctrl2.neitherReadNorWriteReqs            0                       # Number of requests that are neither read nor write (Count)
system.mem_ctrl2.avgRdQLen                       0.00                       # Average read queue length when enqueuing ((Count/Tick))
system.mem_ctrl2.avgWrQLen                       0.00                       # Average write queue length when enqueuing ((Count/Tick))
system.mem_ctrl2.numRdRetry                         0                       # Number of times read queue was full causing retry (Count)
system.mem_ctrl2.numWrRetry                         0                       # Number of times write queue was full causing retry (Count)
system.mem_ctrl2.readPktSize::0                     0                       # Read request sizes (log2) (Count)
system.mem_ctrl2.readPktSize::1                     0                       # Read request sizes (log2) (Count)
system.mem_ctrl2.readPktSize::2                     0                       # Read request sizes (log2) (Count)
system.mem_ctrl2.readPktSize::3                     0                       # Read request sizes (log2) (Count)
system.mem_ctrl2.readPktSize::4                     0                       # Read request sizes (log2) (Count)
system.mem_ctrl2.readPktSize::5                     0                       # Read request sizes (log2) (Count)
system.mem_ctrl2.readPktSize::6                     0                       # Read request sizes (log2) (Count)
system.mem_ctrl2.writePktSize::0                    0                       # Write request sizes (log2) (Count)
system.mem_ctrl2.writePktSize::1                    0                       # Write request sizes (log2) (Count)
system.mem_ctrl2.writePktSize::2                    0                       # Write request sizes (log2) (Count)
system.mem_ctrl2.writePktSize::3                    0                       # Write request sizes (log2) (Count)
system.mem_ctrl2.writePktSize::4                    0                       # Write request sizes (log2) (Count)
system.mem_ctrl2.writePktSize::5                    0                       # Write request sizes (log2) (Count)
system.mem_ctrl2.writePktSize::6                    0                       # Write request sizes (log2) (Count)
system.mem_ctrl2.rdQLenPdf::0                       0                       # What read queue length does an incoming req see (Count)
system.mem_ctrl2.rdQLenPdf::1                       0                       # What read queue length does an incoming req see (Count)
system.mem_ctrl2.rdQLenPdf::2                       0                       # What read queue length does an incoming req see (Count)
system.mem_ctrl2.rdQLenPdf::3                       0                       # What read queue length does an incoming req see (Count)
system.mem_ctrl2.rdQLenPdf::4                       0                       # What read queue length does an incoming req see (Count)
system.mem_ctrl2.rdQLenPdf::5                       0                       # What read queue length does an incoming req see (Count)
system.mem_ctrl2.rdQLenPdf::6                       0                       # What read queue length does an incoming req see (Count)
system.mem_ctrl2.rdQLenPdf::7                       0                       # What read queue length does an incoming req see (Count)
system.mem_ctrl2.rdQLenPdf::8                       0                       # What read queue length does an incoming req see (Count)
system.mem_ctrl2.rdQLenPdf::9                       0                       # What read queue length does an incoming req see (Count)
system.mem_ctrl2.rdQLenPdf::10                      0                       # What read queue length does an incoming req see (Count)
system.mem_ctrl2.rdQLenPdf::11                      0                       # What read queue length does an incoming req see (Count)
system.mem_ctrl2.rdQLenPdf::12                      0                       # What read queue length does an incoming req see (Count)
system.mem_ctrl2.rdQLenPdf::13                      0                       # What read queue length does an incoming req see (Count)
system.mem_ctrl2.rdQLenPdf::14                      0                       # What read queue length does an incoming req see (Count)
system.mem_ctrl2.rdQLenPdf::15                      0                       # What read queue length does an incoming req see (Count)
system.mem_ctrl2.rdQLenPdf::16                      0                       # What read queue length does an incoming req see (Count)
system.mem_ctrl2.rdQLenPdf::17                      0                       # What read queue length does an incoming req see (Count)
system.mem_ctrl2.rdQLenPdf::18                      0                       # What read queue length does an incoming req see (Count)
system.mem_ctrl2.rdQLenPdf::19                      0                       # What read queue length does an incoming req see (Count)
system.mem_ctrl2.rdQLenPdf::20                      0                       # What read queue length does an incoming req see (Count)
system.mem_ctrl2.rdQLenPdf::21                      0                       # What read queue length does an incoming req see (Count)
system.mem_ctrl2.rdQLenPdf::22                      0                       # What read queue length does an incoming req see (Count)
system.mem_ctrl2.rdQLenPdf::23                      0                       # What read queue length does an incoming req see (Count)
system.mem_ctrl2.rdQLenPdf::24                      0                       # What read queue length does an incoming req see (Count)
system.mem_ctrl2.rdQLenPdf::25                      0                       # What read queue length does an incoming req see (Count)
system.mem_ctrl2.rdQLenPdf::26                      0                       # What read queue length does an incoming req see (Count)
system.mem_ctrl2.rdQLenPdf::27                      0                       # What read queue length does an incoming req see (Count)
system.mem_ctrl2.rdQLenPdf::28                      0                       # What read queue length does an incoming req see (Count)
system.mem_ctrl2.rdQLenPdf::29                      0                       # What read queue length does an incoming req see (Count)
system.mem_ctrl2.rdQLenPdf::30                      0                       # What read queue length does an incoming req see (Count)
system.mem_ctrl2.rdQLenPdf::31                      0                       # What read queue length does an incoming req see (Count)
system.mem_ctrl2.wrQLenPdf::0                       0                       # What write queue length does an incoming req see (Count)
system.mem_ctrl2.wrQLenPdf::1                       0                       # What write queue length does an incoming req see (Count)
system.mem_ctrl2.wrQLenPdf::2                       0                       # What write queue length does an incoming req see (Count)
system.mem_ctrl2.wrQLenPdf::3                       0                       # What write queue length does an incoming req see (Count)
system.mem_ctrl2.wrQLenPdf::4                       0                       # What write queue length does an incoming req see (Count)
system.mem_ctrl2.wrQLenPdf::5                       0                       # What write queue length does an incoming req see (Count)
system.mem_ctrl2.wrQLenPdf::6                       0                       # What write queue length does an incoming req see (Count)
system.mem_ctrl2.wrQLenPdf::7                       0                       # What write queue length does an incoming req see (Count)
system.mem_ctrl2.wrQLenPdf::8                       0                       # What write queue length does an incoming req see (Count)
system.mem_ctrl2.wrQLenPdf::9                       0                       # What write queue length does an incoming req see (Count)
system.mem_ctrl2.wrQLenPdf::10                      0                       # What write queue length does an incoming req see (Count)
system.mem_ctrl2.wrQLenPdf::11                      0                       # What write queue length does an incoming req see (Count)
system.mem_ctrl2.wrQLenPdf::12                      0                       # What write queue length does an incoming req see (Count)
system.mem_ctrl2.wrQLenPdf::13                      0                       # What write queue length does an incoming req see (Count)
system.mem_ctrl2.wrQLenPdf::14                      0                       # What write queue length does an incoming req see (Count)
system.mem_ctrl2.wrQLenPdf::15                      0                       # What write queue length does an incoming req see (Count)
system.mem_ctrl2.wrQLenPdf::16                      0                       # What write queue length does an incoming req see (Count)
system.mem_ctrl2.wrQLenPdf::17                      0                       # What write queue length does an incoming req see (Count)
system.mem_ctrl2.wrQLenPdf::18                      0                       # What write queue length does an incoming req see (Count)
system.mem_ctrl2.wrQLenPdf::19                      0                       # What write queue length does an incoming req see (Count)
system.mem_ctrl2.wrQLenPdf::20                      0                       # What write queue length does an incoming req see (Count)
system.mem_ctrl2.wrQLenPdf::21                      0                       # What write queue length does an incoming req see (Count)
system.mem_ctrl2.wrQLenPdf::22                      0                       # What write queue length does an incoming req see (Count)
system.mem_ctrl2.wrQLenPdf::23                      0                       # What write queue length does an incoming req see (Count)
system.mem_ctrl2.wrQLenPdf::24                      0                       # What write queue length does an incoming req see (Count)
system.mem_ctrl2.wrQLenPdf::25                      0                       # What write queue length does an incoming req see (Count)
system.mem_ctrl2.wrQLenPdf::26                      0                       # What write queue length does an incoming req see (Count)
system.mem_ctrl2.wrQLenPdf::27                      0                       # What write queue length does an incoming req see (Count)
system.mem_ctrl2.wrQLenPdf::28                      0                       # What write queue length does an incoming req see (Count)
system.mem_ctrl2.wrQLenPdf::29                      0                       # What write queue length does an incoming req see (Count)
system.mem_ctrl2.wrQLenPdf::30                      0                       # What write queue length does an incoming req see (Count)
system.mem_ctrl2.wrQLenPdf::31                      0                       # What write queue length does an incoming req see (Count)
system.mem_ctrl2.wrQLenPdf::32                      0                       # What write queue length does an incoming req see (Count)
system.mem_ctrl2.wrQLenPdf::33                      0                       # What write queue length does an incoming req see (Count)
system.mem_ctrl2.wrQLenPdf::34                      0                       # What write queue length does an incoming req see (Count)
system.mem_ctrl2.wrQLenPdf::35                      0                       # What write queue length does an incoming req see (Count)
system.mem_ctrl2.wrQLenPdf::36                      0                       # What write queue length does an incoming req see (Count)
system.mem_ctrl2.wrQLenPdf::37                      0                       # What write queue length does an incoming req see (Count)
system.mem_ctrl2.wrQLenPdf::38                      0                       # What write queue length does an incoming req see (Count)
system.mem_ctrl2.wrQLenPdf::39                      0                       # What write queue length does an incoming req see (Count)
system.mem_ctrl2.wrQLenPdf::40                      0                       # What write queue length does an incoming req see (Count)
system.mem_ctrl2.wrQLenPdf::41                      0                       # What write queue length does an incoming req see (Count)
system.mem_ctrl2.wrQLenPdf::42                      0                       # What write queue length does an incoming req see (Count)
system.mem_ctrl2.wrQLenPdf::43                      0                       # What write queue length does an incoming req see (Count)
system.mem_ctrl2.wrQLenPdf::44                      0                       # What write queue length does an incoming req see (Count)
system.mem_ctrl2.wrQLenPdf::45                      0                       # What write queue length does an incoming req see (Count)
system.mem_ctrl2.wrQLenPdf::46                      0                       # What write queue length does an incoming req see (Count)
system.mem_ctrl2.wrQLenPdf::47                      0                       # What write queue length does an incoming req see (Count)
system.mem_ctrl2.wrQLenPdf::48                      0                       # What write queue length does an incoming req see (Count)
system.mem_ctrl2.wrQLenPdf::49                      0                       # What write queue length does an incoming req see (Count)
system.mem_ctrl2.wrQLenPdf::50                      0                       # What write queue length does an incoming req see (Count)
system.mem_ctrl2.wrQLenPdf::51                      0                       # What write queue length does an incoming req see (Count)
system.mem_ctrl2.wrQLenPdf::52                      0                       # What write queue length does an incoming req see (Count)
system.mem_ctrl2.wrQLenPdf::53                      0                       # What write queue length does an incoming req see (Count)
system.mem_ctrl2.wrQLenPdf::54                      0                       # What write queue length does an incoming req see (Count)
system.mem_ctrl2.wrQLenPdf::55                      0                       # What write queue length does an incoming req see (Count)
system.mem_ctrl2.wrQLenPdf::56                      0                       # What write queue length does an incoming req see (Count)
system.mem_ctrl2.wrQLenPdf::57                      0                       # What write queue length does an incoming req see (Count)
system.mem_ctrl2.wrQLenPdf::58                      0                       # What write queue length does an incoming req see (Count)
system.mem_ctrl2.wrQLenPdf::59                      0                       # What write queue length does an incoming req see (Count)
system.mem_ctrl2.wrQLenPdf::60                      0                       # What write queue length does an incoming req see (Count)
system.mem_ctrl2.wrQLenPdf::61                      0                       # What write queue length does an incoming req see (Count)
system.mem_ctrl2.wrQLenPdf::62                      0                       # What write queue length does an incoming req see (Count)
system.mem_ctrl2.wrQLenPdf::63                      0                       # What write queue length does an incoming req see (Count)
system.mem_ctrl2.bytesReadWrQ                       0                       # Total number of bytes read from write queue (Byte)
system.mem_ctrl2.bytesReadSys                       0                       # Total read bytes from the system interface side (Byte)
system.mem_ctrl2.bytesWrittenSys                    0                       # Total written bytes from the system interface side (Byte)
system.mem_ctrl2.avgRdBWSys                0.00000000                       # Average system read bandwidth in Byte/s ((Byte/Second))
system.mem_ctrl2.avgWrBWSys                0.00000000                       # Average system write bandwidth in Byte/s ((Byte/Second))
system.mem_ctrl2.totGap                             0                       # Total gap between requests (Tick)
system.mem_ctrl2.avgGap                           nan                       # Average gap between requests ((Tick/Count))
system.mem_ctrl2.dram.readBursts                    0                       # Number of DRAM read bursts (Count)
system.mem_ctrl2.dram.writeBursts                   0                       # Number of DRAM write bursts (Count)
system.mem_ctrl2.dram.perBankRdBursts::0            0                       # Per bank write bursts (Count)
system.mem_ctrl2.dram.perBankRdBursts::1            0                       # Per bank write bursts (Count)
system.mem_ctrl2.dram.perBankRdBursts::2            0                       # Per bank write bursts (Count)
system.mem_ctrl2.dram.perBankRdBursts::3            0                       # Per bank write bursts (Count)
system.mem_ctrl2.dram.perBankRdBursts::4            0                       # Per bank write bursts (Count)
system.mem_ctrl2.dram.perBankRdBursts::5            0                       # Per bank write bursts (Count)
system.mem_ctrl2.dram.perBankRdBursts::6            0                       # Per bank write bursts (Count)
system.mem_ctrl2.dram.perBankRdBursts::7            0                       # Per bank write bursts (Count)
system.mem_ctrl2.dram.perBankRdBursts::8            0                       # Per bank write bursts (Count)
system.mem_ctrl2.dram.perBankRdBursts::9            0                       # Per bank write bursts (Count)
system.mem_ctrl2.dram.perBankRdBursts::10            0                       # Per bank write bursts (Count)
system.mem_ctrl2.dram.perBankRdBursts::11            0                       # Per bank write bursts (Count)
system.mem_ctrl2.dram.perBankRdBursts::12            0                       # Per bank write bursts (Count)
system.mem_ctrl2.dram.perBankRdBursts::13            0                       # Per bank write bursts (Count)
system.mem_ctrl2.dram.perBankRdBursts::14            0                       # Per bank write bursts (Count)
system.mem_ctrl2.dram.perBankRdBursts::15            0                       # Per bank write bursts (Count)
system.mem_ctrl2.dram.perBankWrBursts::0            0                       # Per bank write bursts (Count)
system.mem_ctrl2.dram.perBankWrBursts::1            0                       # Per bank write bursts (Count)
system.mem_ctrl2.dram.perBankWrBursts::2            0                       # Per bank write bursts (Count)
system.mem_ctrl2.dram.perBankWrBursts::3            0                       # Per bank write bursts (Count)
system.mem_ctrl2.dram.perBankWrBursts::4            0                       # Per bank write bursts (Count)
system.mem_ctrl2.dram.perBankWrBursts::5            0                       # Per bank write bursts (Count)
[...]
system.mem_ctrl3.wrQLenPdf::50                      0                       # What write queue length does an incoming req see (Count)
system.mem_ctrl3.wrQLenPdf::51                      0                       # What write queue length does an incoming req see (Count)
system.mem_ctrl3.wrQLenPdf::52                      0                       # What write queue length does an incoming req see (Count)
system.mem_ctrl3.wrQLenPdf::53                      0                       # What write queue length does an incoming req see (Count)
system.mem_ctrl3.wrQLenPdf::54                      0                       # What write queue length does an incoming req see (Count)
system.mem_ctrl3.wrQLenPdf::55                      0                       # What write queue length does an incoming req see (Count)
system.mem_ctrl3.wrQLenPdf::56                      0                       # What write queue length does an incoming req see (Count)
system.mem_ctrl3.wrQLenPdf::57                      0                       # What write queue length does an incoming req see (Count)
system.mem_ctrl3.wrQLenPdf::58                      0                       # What write queue length does an incoming req see (Count)
system.mem_ctrl3.wrQLenPdf::59                      0                       # What write queue length does an incoming req see (Count)
system.mem_ctrl3.wrQLenPdf::60                      0                       # What write queue length does an incoming req see (Count)
system.mem_ctrl3.wrQLenPdf::61                      0                       # What write queue length does an incoming req see (Count)
system.mem_ctrl3.wrQLenPdf::62                      0                       # What write queue length does an incoming req see (Count)
system.mem_ctrl3.wrQLenPdf::63                      0                       # What write queue length does an incoming req see (Count)
system.mem_ctrl3.bytesReadWrQ                       0                       # Total number of bytes read from write queue (Byte)
system.mem_ctrl3.bytesReadSys                       0                       # Total read bytes from the system interface side (Byte)
system.mem_ctrl3.bytesWrittenSys                    0                       # Total written bytes from the system interface side (Byte)
system.mem_ctrl3.avgRdBWSys                0.00000000                       # Average system read bandwidth in Byte/s ((Byte/Second))
system.mem_ctrl3.avgWrBWSys                0.00000000                       # Average system write bandwidth in Byte/s ((Byte/Second))
system.mem_ctrl3.totGap                             0                       # Total gap between requests (Tick)
system.mem_ctrl3.avgGap                           nan                       # Average gap between requests ((Tick/Count))
system.mem_ctrl3.dram.readBursts                    0                       # Number of DRAM read bursts (Count)
system.mem_ctrl3.dram.writeBursts                   0                       # Number of DRAM write bursts (Count)
system.mem_ctrl3.dram.perBankRdBursts::0            0                       # Per bank write bursts (Count)
system.mem_ctrl3.dram.perBankRdBursts::1            0                       # Per bank write bursts (Count)
system.mem_ctrl3.dram.perBankRdBursts::2            0                       # Per bank write bursts (Count)
system.mem_ctrl3.dram.perBankRdBursts::3            0                       # Per bank write bursts (Count)
system.mem_ctrl3.dram.perBankRdBursts::4            0                       # Per bank write bursts (Count)
system.mem_ctrl3.dram.perBankRdBursts::5            0                       # Per bank write bursts (Count)
system.mem_ctrl3.dram.perBankRdBursts::6            0                       # Per bank write bursts (Count)
system.mem_ctrl3.dram.perBankRdBursts::7            0                       # Per bank write bursts (Count)
system.mem_ctrl3.dram.perBankRdBursts::8            0                       # Per bank write bursts (Count)
system.mem_ctrl3.dram.perBankRdBursts::9            0                       # Per bank write bursts (Count)
system.mem_ctrl3.dram.perBankRdBursts::10            0                       # Per bank write bursts (Count)
system.mem_ctrl3.dram.perBankRdBursts::11            0                       # Per bank write bursts (Count)
system.mem_ctrl3.dram.perBankRdBursts::12            0                       # Per bank write bursts (Count)
system.mem_ctrl3.dram.perBankRdBursts::13            0                       # Per bank write bursts (Count)
system.mem_ctrl3.dram.perBankRdBursts::14            0                       # Per bank write bursts (Count)
system.mem_ctrl3.dram.perBankRdBursts::15            0                       # Per bank write bursts (Count)
system.mem_ctrl3.dram.perBankWrBursts::0            0                       # Per bank write bursts (Count)
system.mem_ctrl3.dram.perBankWrBursts::1            0                       # Per bank write bursts (Count)
system.mem_ctrl3.dram.perBankWrBursts::2            0                       # Per bank write bursts (Count)
system.mem_ctrl3.dram.perBankWrBursts::3            0                       # Per bank write bursts (Count)
system.mem_ctrl3.dram.perBankWrBursts::4            0                       # Per bank write bursts (Count)
system.mem_ctrl3.dram.perBankWrBursts::5            0                       # Per bank write bursts (Count)
system.mem_ctrl3.dram.perBankWrBursts::6            0                       # Per bank write bursts (Count)
system.mem_ctrl3.dram.perBankWrBursts::7            0                       # Per bank write bursts (Count)
system.mem_ctrl3.dram.perBankWrBursts::8            0                       # Per bank write bursts (Count)
system.mem_ctrl3.dram.perBankWrBursts::9            0                       # Per bank write bursts (Count)
system.mem_ctrl3.dram.perBankWrBursts::10            0                       # Per bank write bursts (Count)
system.mem_ctrl3.dram.perBankWrBursts::11            0                       # Per bank write bursts (Count)
system.mem_ctrl3.dram.perBankWrBursts::12            0                       # Per bank write bursts (Count)
system.mem_ctrl3.dram.perBankWrBursts::13            0                       # Per bank write bursts (Count)
system.mem_ctrl3.dram.perBankWrBursts::14            0                       # Per bank write bursts (Count)
system.mem_ctrl3.dram.perBankWrBursts::15            0                       # Per bank write bursts (Count)
system.mem_ctrl3.dram.totQLat                       0                       # Total ticks spent queuing (Tick)
system.mem_ctrl3.dram.totBusLat                     0                       # Total ticks spent in databus transfers (Tick)
system.mem_ctrl3.dram.totMemAccLat                  0                       # Total ticks spent from burst creation until serviced by the DRAM (Tick)
system.mem_ctrl3.dram.avgQLat                     nan                       # Average queueing delay per DRAM burst ((Tick/Count))
system.mem_ctrl3.dram.avgBusLat                   nan                       # Average bus latency per DRAM burst ((Tick/Count))
system.mem_ctrl3.dram.avgMemAccLat                nan                       # Average memory access latency per DRAM burst ((Tick/Count))
system.mem_ctrl3.dram.readRowHits                   0                       # Number of row buffer hits during reads (Count)
system.mem_ctrl3.dram.writeRowHits                  0                       # Number of row buffer hits during writes (Count)
system.mem_ctrl3.dram.readRowHitRate              nan                       # Row buffer hit rate for reads (Ratio)
system.mem_ctrl3.dram.writeRowHitRate             nan                       # Row buffer hit rate for writes (Ratio)
system.mem_ctrl3.dram.dramBytesRead                 0                       # Total bytes read (Byte)
system.mem_ctrl3.dram.dramBytesWritten              0                       # Total bytes written (Byte)
system.mem_ctrl3.dram.avgRdBW                       0                       # Average DRAM read bandwidth in MiBytes/s ((Byte/Second))
system.mem_ctrl3.dram.avgWrBW                       0                       # Average DRAM write bandwidth in MiBytes/s ((Byte/Second))
system.mem_ctrl3.dram.peakBW                 12800.00                       # Theoretical peak bandwidth in MiByte/s ((Byte/Second))
system.mem_ctrl3.dram.busUtil                    0.00                       # Data bus utilization in percentage (Ratio)
system.mem_ctrl3.dram.busUtilRead                0.00                       # Data bus utilization in percentage for reads (Ratio)
system.mem_ctrl3.dram.busUtilWrite               0.00                       # Data bus utilization in percentage for writes (Ratio)
system.mem_ctrl3.dram.pageHitRate                 nan                       # Row buffer hit rate, read and write combined (Ratio)
system.mem_ctrl3.dram.power_state.pwrStateResidencyTicks::UNDEFINED 28455503244000                       # Cumulative time (in ticks) in various power states (Tick)
system.mem_ctrl3.dram.rank0.actEnergy               0                       # Energy for activate commands per rank (pJ) (Joule)
system.mem_ctrl3.dram.rank0.preEnergy               0                       # Energy for precharge commands per rank (pJ) (Joule)
system.mem_ctrl3.dram.rank0.readEnergy              0                       # Energy for read commands per rank (pJ) (Joule)
system.mem_ctrl3.dram.rank0.writeEnergy             0                       # Energy for write commands per rank (pJ) (Joule)
system.mem_ctrl3.dram.rank0.refreshEnergy 2246252895120.000488                       # Energy for refresh commands per rank (pJ) (Joule)
system.mem_ctrl3.dram.rank0.actBackEnergy 410373125070                       # Energy for active background per rank (pJ) (Joule)
system.mem_ctrl3.dram.rank0.preBackEnergy 10581335877600                       # Energy for precharge background per rank (pJ) (Joule)
system.mem_ctrl3.dram.rank0.actPowerDownEnergy            0                       # Energy for active power-down per rank (pJ) (Joule)
system.mem_ctrl3.dram.rank0.prePowerDownEnergy            0                       # Energy for precharge power-down per rank (pJ) (Joule)
system.mem_ctrl3.dram.rank0.selfRefreshEnergy            0                       # Energy for self refresh per rank (pJ) (Joule)
system.mem_ctrl3.dram.rank0.totalEnergy  13237961897790                       # Total energy per rank (pJ) (Joule)
system.mem_ctrl3.dram.rank0.averagePower   465.216228                       # Core power per rank (mW) (Watt)
system.mem_ctrl3.dram.rank0.totalIdleTime            0                       # Total Idle time Per DRAM Rank (Tick)
system.mem_ctrl3.dram.rank0.pwrStateTime::IDLE 27505311664000                       # Time in different power states (Tick)
system.mem_ctrl3.dram.rank0.pwrStateTime::REF 950191580000                       # Time in different power states (Tick)
system.mem_ctrl3.dram.rank0.pwrStateTime::SREF            0                       # Time in different power states (Tick)
system.mem_ctrl3.dram.rank0.pwrStateTime::PRE_PDN            0                       # Time in different power states (Tick)
system.mem_ctrl3.dram.rank0.pwrStateTime::ACT            0                       # Time in different power states (Tick)
system.mem_ctrl3.dram.rank0.pwrStateTime::ACT_PDN            0                       # Time in different power states (Tick)
system.mem_ctrl3.dram.rank1.actEnergy               0                       # Energy for activate commands per rank (pJ) (Joule)
system.mem_ctrl3.dram.rank1.preEnergy               0                       # Energy for precharge commands per rank (pJ) (Joule)
system.mem_ctrl3.dram.rank1.readEnergy              0                       # Energy for read commands per rank (pJ) (Joule)
system.mem_ctrl3.dram.rank1.writeEnergy             0                       # Energy for write commands per rank (pJ) (Joule)
system.mem_ctrl3.dram.rank1.refreshEnergy 2246252895120.000488                       # Energy for refresh commands per rank (pJ) (Joule)
system.mem_ctrl3.dram.rank1.actBackEnergy 410373125070                       # Energy for active background per rank (pJ) (Joule)
system.mem_ctrl3.dram.rank1.preBackEnergy 10581335877600                       # Energy for precharge background per rank (pJ) (Joule)
system.mem_ctrl3.dram.rank1.actPowerDownEnergy            0                       # Energy for active power-down per rank (pJ) (Joule)
system.mem_ctrl3.dram.rank1.prePowerDownEnergy            0                       # Energy for precharge power-down per rank (pJ) (Joule)
system.mem_ctrl3.dram.rank1.selfRefreshEnergy            0                       # Energy for self refresh per rank (pJ) (Joule)
system.mem_ctrl3.dram.rank1.totalEnergy  13237961897790                       # Total energy per rank (pJ) (Joule)
system.mem_ctrl3.dram.rank1.averagePower   465.216228                       # Core power per rank (mW) (Watt)
system.mem_ctrl3.dram.rank1.totalIdleTime            0                       # Total Idle time Per DRAM Rank (Tick)
system.mem_ctrl3.dram.rank1.pwrStateTime::IDLE 27505311664000                       # Time in different power states (Tick)
system.mem_ctrl3.dram.rank1.pwrStateTime::REF 950191580000                       # Time in different power states (Tick)
system.mem_ctrl3.dram.rank1.pwrStateTime::SREF            0                       # Time in different power states (Tick)
system.mem_ctrl3.dram.rank1.pwrStateTime::PRE_PDN            0                       # Time in different power states (Tick)
system.mem_ctrl3.dram.rank1.pwrStateTime::ACT            0                       # Time in different power states (Tick)
system.mem_ctrl3.dram.rank1.pwrStateTime::ACT_PDN            0                       # Time in different power states (Tick)
system.mem_ctrl3.power_state.pwrStateResidencyTicks::UNDEFINED 28455503244000                       # Cumulative time (in ticks) in various power states (Tick)
system.membus.transDist::ReadReq            172889665                       # Transaction distribution (Count)
system.membus.transDist::ReadResp           172889665                       # Transaction distribution (Count)
system.membus.transDist::WriteReq            20589722                       # Transaction distribution (Count)
system.membus.transDist::WriteResp           20589722                       # Transaction distribution (Count)
system.membus.transDist::LockedRMWReadReq      2060084                       # Transaction distribution (Count)
system.membus.transDist::LockedRMWReadResp      2060084                       # Transaction distribution (Count)
system.membus.transDist::LockedRMWWriteReq      2060084                       # Transaction distribution (Count)
system.membus.transDist::LockedRMWWriteResp      2060084                       # Transaction distribution (Count)
system.membus.pktCount_system.cpu.icache_port::system.journal.cpu_side_port    279928746                       # Packet count per connected requestor and responder (Count)
system.membus.pktCount_system.cpu.icache_port::total    279928746                       # Packet count per connected requestor and responder (Count)
system.membus.pktCount_system.cpu.dcache_port::system.journal.cpu_side_port    115270364                       # Packet count per connected requestor and responder (Count)
system.membus.pktCount_system.cpu.dcache_port::total    115270364                       # Packet count per connected requestor and responder (Count)
system.membus.pktCount::total               395199110                       # Packet count per connected requestor and responder (Count)
system.membus.pktSize_system.cpu.icache_port::system.journal.cpu_side_port   1119714984                       # Cumulative packet size per connected requestor and responder (Byte)
system.membus.pktSize_system.cpu.icache_port::total   1119714984                       # Cumulative packet size per connected requestor and responder (Byte)
system.membus.pktSize_system.cpu.dcache_port::system.journal.cpu_side_port    370308208                       # Cumulative packet size per connected requestor and responder (Byte)
system.membus.pktSize_system.cpu.dcache_port::total    370308208                       # Cumulative packet size per connected requestor and responder (Byte)
system.membus.pktSize::total               1490023192                       # Cumulative packet size per connected requestor and responder (Byte)
system.membus.snoops                                0                       # Total snoops (Count)
system.membus.snoopTraffic                          0                       # Total snoop traffic (Byte)
system.membus.snoopFanout::samples          197599555                       # Request fanout histogram (Count)
system.membus.snoopFanout::mean                     0                       # Request fanout histogram (Count)
system.membus.snoopFanout::stdev                    0                       # Request fanout histogram (Count)
system.membus.snoopFanout::underflows               0      0.00%      0.00% # Request fanout histogram (Count)
system.membus.snoopFanout::0                197599555    100.00%    100.00% # Request fanout histogram (Count)
system.membus.snoopFanout::1                        0      0.00%    100.00% # Request fanout histogram (Count)
system.membus.snoopFanout::overflows                0      0.00%    100.00% # Request fanout histogram (Count)
system.membus.snoopFanout::min_value                0                       # Request fanout histogram (Count)
system.membus.snoopFanout::max_value                0                       # Request fanout histogram (Count)
system.membus.snoopFanout::total            197599555                       # Request fanout histogram (Count)
system.membus.power_state.pwrStateResidencyTicks::UNDEFINED 28455503244000                       # Cumulative time (in ticks) in various power states (Tick)
system.membus.reqLayer2.occupancy        110124680500                       # Layer occupancy (ticks) (Tick)
system.membus.reqLayer2.utilization               0.0                       # Layer utilization (Ratio)
system.membus.respLayer0.occupancy       172376020250                       # Layer occupancy (ticks) (Tick)
system.membus.respLayer0.utilization              0.0                       # Layer utilization (Ratio)
system.membus.respLayer1.occupancy        50832204250                       # Layer occupancy (ticks) (Tick)
system.membus.respLayer1.utilization              0.0                       # Layer utilization (Ratio)
system.membus.snoop_filter.totRequests              0                       # Total number of requests made to the snoop filter. (Count)
system.membus.snoop_filter.hitSingleRequests            0                       # Number of requests hitting in the snoop filter with a single holder of the requested data. (Count)
system.membus.snoop_filter.hitMultiRequests            0                       # Number of requests hitting in the snoop filter with multiple (>1) holders of the requested data. (Count)
system.membus.snoop_filter.totSnoops                0                       # Total number of snoops made to the snoop filter. (Count)
system.membus.snoop_filter.hitSingleSnoops            0                       # Number of snoops hitting in the snoop filter with a single holder of the requested data. (Count)
system.membus.snoop_filter.hitMultiSnoops            0                       # Number of snoops hitting in the snoop filter with multiple (>1) holders of the requested data. (Count)
system.workload.inst.arm                            0                       # number of arm instructions executed (Count)
system.workload.inst.quiesce                        0                       # number of quiesce instructions executed (Count)

---------- End Simulation Statistics   ----------
